LAMMPS (2 Aug 2023)
#-------------------- Initialization -----------------------------------------------------
clear
echo            both    # echoes each input script command to both log file and screen
#-----------------------------------------------------------------------------------------
units           metal   # determines units of all quantities used in the input file
atom_style      atomic
boundary        p p p   # periodic boundary condition
#-----------------------------------------------------------------------------------------
variable Tini equal 300.0 # [K] (Initial temperature)
variable Tfin equal 593.0 # [K] (Annealing temperature), other condition: 873 K, 973 K

variable Nout equal 400 # every 400 time steps to the specified file

#-------------------- Atom & Lattice description ----------------------------------------
read_data       data.lammps
Reading data file ...
  triclinic box = (0 0 0) to (13.04 25.897 10.436872) with tilt (1.5857339e-15 -2.8689151 8.3844923e-16)
  reading atoms ...
  308 atoms

replicate 1 1 1
Replication is creating a 1x1x1 = 1 times larger system...
  triclinic box = (0 0 0) to (13.04 25.897 10.436872) with tilt (1.5857339e-15 -2.8689151 8.3844923e-16)
  308 atoms
  replicate CPU = 0.000 seconds

variable elem string "Ni N C H" # specifies the potential file used

#-------------------- Force field --------------------------------------------------------
pair_style hybrid/overlay chgnet/gpu /mnt/d/lammps/potentials/CHGNET momb 12.0 0.75 20.0
#pair_style    chgnet /mnt/d/lammps/potentials/CHGNET
#pair_style    chgnet/d3 /mnt/d/lammps/potentials/CHGNET
#pair_style    chgnet/gpu /mnt/d/lammps/potentials/CHGNET
#pair_style    chgnet/d3/gpu /mnt/d/lammps/potentials/CHGNET

pair_coeff    * *  chgnet/gpu 0.3.0 Ni N C H

# atom type 1, Ni
variable C6_1 equal 10.80 # Jnm6mol-1
variable R0_1 equal 1.562 # Angstrom

# atom type 2, N
variable C6_2 equal 1.23  # Jnm6mol-1
variable R0_2 equal 1.397 # Angstrom

# atom type 3, C
variable C6_3 equal 1.75  # Jnm6mol-1
variable R0_3 equal 1.452 # Angstrom

# atom type 4, H
variable C6_4 equal 0.14  # Jnm6mol-1
variable R0_4 equal 1.001 # Angstrom

# convert [Jnm6mol-1] to [eVA6], (sqrt() or ()^0.5)
pair_coeff 1 1 momb 0.0 1.0 1.0 $(sqrt(v_C6_1 * v_C6_1)*10.364) $(v_R0_1 + v_R0_1) # Ni-Ni
pair_coeff 1 1 momb 0.0 1.0 1.0 111.93120000000001824 $(v_R0_1 + v_R0_1)
pair_coeff 1 1 momb 0.0 1.0 1.0 111.93120000000001824 3.1240000000000001101
pair_coeff 1 2 momb 0.0 1.0 1.0 $(sqrt(v_C6_1 * v_C6_2)*10.364) $(v_R0_1 + v_R0_2) # Ni-N
pair_coeff 1 2 momb 0.0 1.0 1.0 37.773901001405725708 $(v_R0_1 + v_R0_2)
pair_coeff 1 2 momb 0.0 1.0 1.0 37.773901001405725708 2.9590000000000000746
pair_coeff 1 3 momb 0.0 1.0 1.0 $(sqrt(v_C6_1 * v_C6_3)*10.364) $(v_R0_1 + v_R0_3) # Ni-C
pair_coeff 1 3 momb 0.0 1.0 1.0 45.056588579252206728 $(v_R0_1 + v_R0_3)
pair_coeff 1 3 momb 0.0 1.0 1.0 45.056588579252206728 3.0140000000000002345
pair_coeff 1 4 momb 0.0 1.0 1.0 $(sqrt(v_C6_1 * v_C6_4)*10.364) $(v_R0_1 + v_R0_4) # Ni-H
pair_coeff 1 4 momb 0.0 1.0 1.0 12.743927728608634098 $(v_R0_1 + v_R0_4)
pair_coeff 1 4 momb 0.0 1.0 1.0 12.743927728608634098 2.5629999999999997229
pair_coeff 2 2 momb 0.0 1.0 1.0 $(sqrt(v_C6_2 * v_C6_2)*10.364) $(v_R0_2 + v_R0_2) # N-N
pair_coeff 2 2 momb 0.0 1.0 1.0 12.74772000000000105 $(v_R0_2 + v_R0_2)
pair_coeff 2 2 momb 0.0 1.0 1.0 12.74772000000000105 2.7940000000000000391
pair_coeff 2 3 momb 0.0 1.0 1.0 $(sqrt(v_C6_2 * v_C6_3)*10.364) $(v_R0_2 + v_R0_3) # N-C
pair_coeff 2 3 momb 0.0 1.0 1.0 15.205439738462022348 $(v_R0_2 + v_R0_3)
pair_coeff 2 3 momb 0.0 1.0 1.0 15.205439738462022348 2.849000000000000199
pair_coeff 2 4 momb 0.0 1.0 1.0 $(sqrt(v_C6_2 * v_C6_4)*10.364) $(v_R0_2 + v_R0_4) # N-H
pair_coeff 2 4 momb 0.0 1.0 1.0 4.3007478199959603415 $(v_R0_2 + v_R0_4)
pair_coeff 2 4 momb 0.0 1.0 1.0 4.3007478199959603415 2.3979999999999996874
pair_coeff 3 3 momb 0.0 1.0 1.0 $(sqrt(v_C6_3 * v_C6_3)*10.364) $(v_R0_3 + v_R0_3) # C-C
pair_coeff 3 3 momb 0.0 1.0 1.0 18.137000000000000455 $(v_R0_3 + v_R0_3)
pair_coeff 3 3 momb 0.0 1.0 1.0 18.137000000000000455 2.9039999999999999147
pair_coeff 3 4 momb 0.0 1.0 1.0 $(sqrt(v_C6_3 * v_C6_4)*10.364) $(v_R0_3 + v_R0_4) # C-H
pair_coeff 3 4 momb 0.0 1.0 1.0 5.1299182761521660012 $(v_R0_3 + v_R0_4)
pair_coeff 3 4 momb 0.0 1.0 1.0 5.1299182761521660012 2.4529999999999998472
pair_coeff 4 4 momb 0.0 1.0 1.0 $(sqrt(v_C6_4 * v_C6_4)*10.364) $(v_R0_4 + v_R0_4) # H-H
pair_coeff 4 4 momb 0.0 1.0 1.0 1.4509600000000002495 $(v_R0_4 + v_R0_4)
pair_coeff 4 4 momb 0.0 1.0 1.0 1.4509600000000002495 2.0019999999999997797

#-------------------- Energy Minimization ------------------------------------------------
# 0 [K], structure optimization
minimize 1.0e-4 1.0e-6 1000 10000

CITE-CITE-CITE-CITE-CITE-CITE-CITE-CITE-CITE-CITE-CITE-CITE-CITE

Your simulation uses code contributions which should be cited:

- Pair style momb: doi:10.1021/jp412098n

@Article{pair_momb_2015,
title = {A Force Field for Describing the Polyvinylpyrrolidone-Mediated
    Solution-Phase Synthesis of Shape-Selective {Ag} Nanoparticles},
volume = {118},
number = {6},
url = {https://doi.org/10.1021/jp412098n},
doi = {10.1021/jp412098n},
journal = {J.~Phys.\ Chem.~C},
author = {Zhou, Ya and Wissam A. Saidi and Kristen A. Fichthorn},
year = {2014},
pages = {3366--3374}
}

CITE-CITE-CITE-CITE-CITE-CITE-CITE-CITE-CITE-CITE-CITE-CITE-CITE

Step          Temp          E_pair         E_mol          TotEng         Press
0   0             -2166.2812      0             -2166.2812      153163.08
Loop time of 3.27088 on 1 procs for 8 steps with 308 atoms

Minimization stats:
  Stopping criterion = energy tolerance
  Energy initial, next-to-last, final =
  Force two-norm initial, final = 116.42223 3.2157426
  Force max component initial, final = 8.5957331 0.44113491
  Final line search alpha, max atom move = 0.12964143 0.057189359
  Iterations, force evaluations = 8 16

#-------------------- Settings -----------------------------------------------------------
reset_timestep 0

timestep 0.00025 # 0.25 [fs] (Recommend 0.1-0.5 [fs]), sets the timestep for subsequent simulations

thermo 400
thermo_style custom step temp vol press etotal   # specifies content of thermodynamic data to be printed in screen

velocity all create 300 12345 mom yes rot no
#-------------------- Equilibrium calculation --------------------------------------------

#---------- output file settings --------------------------------------
dump            d1 all cfg 400 cfg/run.*.cfg mass type xs ys zs id type vx vy vz fx fy fz
dump_modify     d1 element Ni N C H
#----------------------------------------------------------------------

#-------------------- Run the simulation -------------------------------------------------
# Equilibrium system, calculation settings
fix f1 all npt temp 300 593 $(100*dt) iso 1.0 1.0 $(1000*dt)
fix f1 all npt temp 300 593 0.025000000000000001388 iso 1.0 1.0 $(1000*dt)
fix f1 all npt temp 300 593 0.025000000000000001388 iso 1.0 1.0 0.25

run             80000 # 20 [ps]
Step          Temp          Volume         Press          TotEng
0   300            3524.4992      16867.486     -2212.8908
Averages over the last 101 of 201 rows, steps 40000 to 80000:
Temp Volume Press TotEng
523.858 3360.18 -436.873 -2189.38
Loop time of 17481.9 on 1 procs for 80000 steps with 308 atoms

unfix  f1 # deletes the previously defined fix 1
undump d1 # deletes the previously defined dump 1
#-------------------- Annealing calculation ----------------------------------------------
reset_timestep 0

#---------- output file settings --------------------------------------
dump            d2 all cfg 400 cfg/run.*.593K.cfg mass type xs ys zs id type vx vy vz fx fy fz
dump_modify     d2 element Ni N C H
#----------------------------------------------------------------------

#-------------------- Run the simulation -------------------------------------------------
fix f2 all npt temp 593 593 $(100*dt) iso 1.0 1.0 $(1000*dt)
fix f2 all npt temp 593 593 0.025000000000000001388 iso 1.0 1.0 $(1000*dt)
fix f2 all npt temp 593 593 0.025000000000000001388 iso 1.0 1.0 0.25

run             400000 # 0.1 [ns]
Step          Temp          Volume         Press          TotEng
0   615.00409      3285.26       -10465.814     -2182.7755
Averages over the last 501 of 1001 rows, steps 200000 to 400000:
Temp Volume Press TotEng
592.067 3339.22 -314.786 -2189.34
Loop time of 87636.2 on 1 procs for 400000 steps with 308 atoms

#-------------------- End ----------------------------------------------------------------
