LAMMPS (2 Aug 2023)
#LAMMPS MD simulation script

#-------------------- Environment Settings ------------------------------------------------
variable TL equal  100.0 # K
variable TH equal 4500.0 # K (airebo:2500.0, tersoff:1800.0)
variable dt equal  0.001 # ps

#-------------------- Initialization -----------------------------------------------------
units        metal
dimension    3
boundary     p p p

#-------------------- Read structure file ------------------------------------------------
atom_style   atomic
read_data    80_SW_N2.data
Reading data file ...
  orthogonal box = (0 0 -10) to (12.577101 16.905299 10)
  reading atoms ...
  80 atoms

variable elem string "C N" # specifies the potential file used

#-------------------- Force field --------------------------------------------------------
# GPU case
pair_style hybrid/overlay chgnet/gpu /mnt/d/lammps/potentials/CHGNET momb 12.0 0.75 20.0
pair_coeff    * *  chgnet/gpu 0.3.0 C N

# CPU case
#pair_style hybrid/overlay chgnet /mnt/d/lammps/potentials/CHGNET momb 12.0 0.75 20.0

# atom type 1, C
variable C6_1 equal 1.75  # Jnm6mol-1
variable R0_1 equal 1.452 # Angstrom

# atom type 2, N
variable C6_2 equal 1.23  # Jnm6mol-1
variable R0_2 equal 1.397 # Angstrom

# convert [Jnm6mol-1] to [eVA6], (sqrt() or ()^0.5)
#-----------------------------------------------------------------------------------------
pair_coeff 1 1 momb 0.0 1.0 1.0 $(sqrt(v_C6_1 * v_C6_1)*10.364) $(v_R0_1 + v_R0_1) # C-C
pair_coeff 1 1 momb 0.0 1.0 1.0 18.137000000000000455 $(v_R0_1 + v_R0_1)
pair_coeff 1 1 momb 0.0 1.0 1.0 18.137000000000000455 2.9039999999999999147
pair_coeff 1 2 momb 0.0 1.0 1.0 $(sqrt(v_C6_1 * v_C6_2)*10.364) $(v_R0_1 + v_R0_2) # C-N
pair_coeff 1 2 momb 0.0 1.0 1.0 15.205439738462022348 $(v_R0_1 + v_R0_2)
pair_coeff 1 2 momb 0.0 1.0 1.0 15.205439738462022348 2.849000000000000199
#-----------------------------------------------------------------------------------------
pair_coeff 2 2 momb 0.0 1.0 1.0 $(sqrt(v_C6_2 * v_C6_2)*10.364) $(v_R0_2 + v_R0_2) # N-N
pair_coeff 2 2 momb 0.0 1.0 1.0 12.74772000000000105 $(v_R0_2 + v_R0_2)
pair_coeff 2 2 momb 0.0 1.0 1.0 12.74772000000000105 2.7940000000000000391
#-----------------------------------------------------------------------------------------

#-------------------- Structure Optimization (0 K) ---------------------------------------
minimize 1.0e-6 1.0e-8 1000 100000

CITE-CITE-CITE-CITE-CITE-CITE-CITE-CITE-CITE-CITE-CITE-CITE-CITE

Your simulation uses code contributions which should be cited:

- Pair style momb: doi:10.1021/jp412098n

@Article{pair_momb_2015,
title = {A Force Field for Describing the Polyvinylpyrrolidone-Mediated
    Solution-Phase Synthesis of Shape-Selective {Ag} Nanoparticles},
volume = {118},
number = {6},
url = {https://doi.org/10.1021/jp412098n},
doi = {10.1021/jp412098n},
journal = {J.~Phys.\ Chem.~C},
author = {Zhou, Ya and Wissam A. Saidi and Kristen A. Fichthorn},
year = {2014},
pages = {3366--3374}
}

CITE-CITE-CITE-CITE-CITE-CITE-CITE-CITE-CITE-CITE-CITE-CITE-CITE

Step          Temp          E_pair         E_mol          TotEng         Press
0   0             -733.18986      0             -733.18986     -3971.1937
Loop time of 0.710435 on 1 procs for 7 steps with 80 atoms

Minimization stats:
  Stopping criterion = energy tolerance
  Energy initial, next-to-last, final =
  Force two-norm initial, final = 3.0739968 0.26106931
  Force max component initial, final = 0.7477899 0.19002889
  Final line search alpha, max atom move = 1 0.19002889
  Iterations, force evaluations = 7 14

reset_timestep 0

#-------------------- Settings -----------------------------------------------------------
timestep     0.001

thermo       100
thermo_style custom step temp pe etotal ke vol

#------------------------------
dump            d1 all cfg 100 cfg/run.*.cfg mass type xs ys zs id type vx vy vz fx fy fz
dump_modify     d1 element C N
#------------------------------

variable RandomSeed equal 195828608
velocity all create 100 195828608 mom yes rot yes dist gaussian

#-------------------- Run the simulation -------------------------------------------------
# Heating
fix 1 all npt temp 100 4500 0.1 iso 1.0 1.0 0.1
run 10000
Step          Temp          PotEng         TotEng         KinEng         Volume
0   100           -733.29947     -732.27832      1.0211551      4252.3929
Averages over the last 51 of 101 rows, steps 5000 to 10000:
Temp PotEng TotEng KinEng Volume
3353.72 -701.528 -667.281 34.2467 4031.48
Loop time of 519.53 on 1 procs for 10000 steps with 80 atoms

unfix 1

#-------------------- Run the simulation -------------------------------------------------
# Annealing
fix 2 all npt temp 4500 4500 0.1 iso 1.0 1.0 0.1
run 30000
Step          Temp          PotEng         TotEng         KinEng         Volume
10000   4533.1285     -696.2179      -649.92762      46.290275      3989.6936
Averages over the last 151 of 301 rows, steps 25000 to 40000:
Temp PotEng TotEng KinEng Volume
4536.44 -690.436 -644.112 46.3241 4074.27
Loop time of 1526.22 on 1 procs for 30000 steps with 80 atoms

unfix 2

#-------------------- Run the simulation -------------------------------------------------
# Cooling
fix 3 all npt temp 4500 100 0.1 iso 1.0 1.0 0.1
run 20000
Step          Temp          PotEng         TotEng         KinEng         Volume
40000   5245.6175     -687.24633     -633.68043      53.565893      3945.9328
Averages over the last 101 of 201 rows, steps 50000 to 60000:
Temp PotEng TotEng KinEng Volume
1212.49 -724.037 -711.655 12.3814 4127.53
Loop time of 1019.64 on 1 procs for 20000 steps with 80 atoms

unfix 3

#-------------------- End ----------------------------------------------------------------
