LAMMPS (2 Aug 2023)
package omp 8
# Compute elastic constant tensor for a crystal at finite temperature
#
# WARNING: This script attempts to measure small differences in
# statistical averages generated by finite temperature MD simulations.
# This creates many more opportunities for errors to occur, compared
# to the zero temperature version provided in examples/ELASTIC.
# Hence, it is always a good idea to start with the zero temperature
# calculation, before attempting to use this script.
#
# Written by Aidan Thompson (Sandia, athomps@sandia.gov)
#
#  This script uses the following three include files.
#
#   init.mod      (must be modified for different crystal structures)
# 	       	  Define units, MD parameters, deformation parameters,
#		  and initial configuration of the atoms and simulation cell.
#
#
#   potential.mod    (must be modified for different pair styles)
# 		     Define pair style and other attributes
#		     not stored in restart file
#
#
#   displace.mod    (displace.mod should not need to be modified)
# 		    Perform positive and negative box displacements
# 		    It uses the resultant changes
#		    in stress to compute one
# 		    row of the elastic stiffness tensor
#
#		    Inputs variables:
#		    	   dir = the Voigt deformation component
#		    		    (1,2,3,4,5,6)
#		    Global constants:
#       	    	   up = the deformation magnitude (strain units)
#       		   cfac = conversion from LAMMPS pressure units to
#               	   output units for elastic constants
#
#
#  To run this on a different system, it should only be necessary to
#  modify the files init.mod and potential.mod. In order to calculate
#  the elastic constants correctly, care must be taken to specify
#  the correct units in init.mod (units, cfac and cunits). It is also
#  important to verify that the MD sampling of stress components
#  is generating accurate statistical averages.
#  One indication of this is that the elastic constants are insensitive
#  check for finite size effects.
#

include init.mod
# NOTE: This script can be modified for different atomic structures,
# units, etc. See in.elastic for more info.
#

variable temp equal 2000.0                # temperature of initial sample [K]

# Define the finite deformation size. Try several values of this
# variable to verify that results do not depend on it.
variable up equal 2.0e-2

# metal units, elastic constants in GPa
units		metal
variable cfac equal 1.0e-4
variable cunits string GPa

# Define MD parameters
variable nevery equal 10                  # sampling interval
variable nrepeat equal 10                 # number of samples
variable nfreq equal 10*10
variable nthermo equal 100
variable nequil equal 10*100
variable nrun equal 3*100
#variable temp equal 2000.0                # temperature of initial sample
variable timestep equal 0.001             # timestep
variable mass1 equal 28.06                # mass
variable adiabatic equal 0                # adiabatic (1) or isothermal (2)
variable tdamp equal 0.01                 # time constant for thermostat
variable seed equal 123457                # seed for thermostat

# generate the box and atom positions using a diamond lattice

dimension    3
boundary     p p p
read_data    data.in
Reading data file ...
  orthogonal box = (-9.11425 -7.2914 -7.2914) to (9.11425 7.2914 7.2914)
  reading atoms ...
  320 atoms
replicate    1 1 1
Replication is creating a 1x1x1 = 1 times larger system...
  orthogonal box = (-9.11425 -7.2914 -7.2914) to (9.11425 7.2914 7.2914)
  320 atoms
  replicate CPU = 0.001 seconds
change_box   all triclinic
Changing box ...
  triclinic box = (-9.11425 -7.2914 -7.2914) to (9.11425 7.2914 7.2914) with tilt (0 0 0)

# Need to set mass to something, just to satisfy LAMMPS in this case (or other case sw,tersoff, bop or lj, etc potential)
mass 1 58.933 # Co
mass 2 58.690 # Ni
mass 3 51.960 # Cr
mass 4 55.847 # Fe
mass 5 54.940 # Mn

velocity	all create 2000 87287

# Compute initial state

variable thermostat equal 1
include potential.mod
# NOTE: This script can be modified for different pair styles
# See in.elastic for more info.

# we must undefine any fix ave/* fix before using reset_timestep
if "$(is_defined(fix,avp))" then "unfix avp"
reset_timestep 0

variable elem string "Co Ni Cr Fe Mn"

#-------------------- Force field --------------------------------------------------------
pair_style      m3gnet /mnt/d/lammps/potentials/M3GNET
#pair_style      m3gnet/d3 /mnt/d/lammps/potentials/M3GNET

pair_coeff      * *  M3GNet-MP-2021.2.8-PES Co Ni Cr Fe Mn

# Setup neighbor style
neighbor 1.0 nsq
neigh_modify once no every 1 delay 0 check yes

# Setup output

fix avp all ave/time  10 10 100 c_thermo_press mode vector
thermo		100
thermo_style custom step temp pe press f_avp[1] f_avp[2] f_avp[3] f_avp[4] f_avp[5] f_avp[6]
thermo_modify norm no

# Setup MD

timestep 0.001
fix 4 all nve
fix 5 all langevin 2000 2000 0.01 123457

run 1000
No /omp style for force computation currently active
Step          Temp          PotEng         Press         f_avp[1]       f_avp[2]       f_avp[3]       f_avp[4]       f_avp[5]       f_avp[6]
0   2000          -2536.0669     -110342.13      0              0              0              0              0              0
Averages over the last 6 of 11 rows, steps 500 to 1000:
Temp PotEng Press f_avp[1] f_avp[2] f_avp[3] f_avp[4] f_avp[5] f_avp[6]
1949.21 -2473.68 1452.45 -4243.28 3985.13 290.259 -317.055 3029.6 84.7552
Loop time of 206.038 on 1 procs for 1000 steps with 320 atoms

variable thermostat equal 1

print 1
1

include potential.mod
# NOTE: This script can be modified for different pair styles
# See in.elastic for more info.

# we must undefine any fix ave/* fix before using reset_timestep
if "$(is_defined(fix,avp))" then "unfix avp"
unfix avp
reset_timestep 0

variable elem string "Co Ni Cr Fe Mn"

#-------------------- Force field --------------------------------------------------------
pair_style      m3gnet /mnt/d/lammps/potentials/M3GNET
#pair_style      m3gnet/d3 /mnt/d/lammps/potentials/M3GNET

pair_coeff      * *  M3GNet-MP-2021.2.8-PES Co Ni Cr Fe Mn

# Setup neighbor style
neighbor 1.0 nsq
neigh_modify once no every 1 delay 0 check yes

# Setup output

fix avp all ave/time  10 10 100 c_thermo_press mode vector
thermo		100
thermo_style custom step temp pe press f_avp[1] f_avp[2] f_avp[3] f_avp[4] f_avp[5] f_avp[6]
thermo_modify norm no

# Setup MD

timestep 0.001
fix 4 all nve
fix 5 all langevin 2000 2000 0.01 123457

run 300
No /omp style for force computation currently active
Step          Temp          PotEng         Press         f_avp[1]       f_avp[2]       f_avp[3]       f_avp[4]       f_avp[5]       f_avp[6]
0   1904.9989     -2474.8828     -4723.3499      0              0              0              0              0              0
Loop time of 64.9028 on 1 procs for 300 steps with 320 atoms

variable pxx0 equal f_avp[1]
variable pyy0 equal f_avp[2]
variable pzz0 equal f_avp[3]
variable pxy0 equal f_avp[4]
variable pxz0 equal f_avp[5]
variable pyz0 equal f_avp[6]

variable tmp equal lx
variable lx0 equal 18.2285
variable tmp equal ly
variable ly0 equal 14.5828
variable tmp equal lz
variable lz0 equal 14.5828

# These formulas define the derivatives w.r.t. strain components
# Constants uses $, variables use v_
variable d1 equal -(v_pxx1--3423.28956145877)/(v_delta/v_len0)*0.0001
variable d2 equal -(v_pyy1-4068.18559381578)/(v_delta/v_len0)*0.0001
variable d3 equal -(v_pzz1--3188.68643522182)/(v_delta/v_len0)*0.0001
variable d4 equal -(v_pyz1--1220.50259847692)/(v_delta/v_len0)*0.0001
variable d5 equal -(v_pxz1-910.090976949758)/(v_delta/v_len0)*0.0001
variable d6 equal -(v_pxy1--1421.7087811893)/(v_delta/v_len0)*0.0001

# Write restart
write_restart restart.equil
System init for write_restart ...
No /omp style for force computation currently active

# uxx Perturbation

variable dir equal 1
include displace.mod
# NOTE: This script should not need to be
# modified. See in.elastic for more info.
#
# Find which reference length to use

variable len0 equal 18.2285

# Reset box and simulation parameters

clear
package omp 8
box tilt large

The 'box' command has been removed and will be ignored

read_restart restart.equil
Reading restart file ...
  restart file = 2 Aug 2023, LAMMPS = 2 Aug 2023
  restoring atom style atomic from restart
  triclinic box = (-9.11425 -7.2914 -7.2914) to (9.11425 7.2914 7.2914) with tilt (0 0 0)
  pair style m3gnet stores no restart info
  320 atoms
  read_restart CPU = 0.002 seconds
include potential.mod
# NOTE: This script can be modified for different pair styles
# See in.elastic for more info.

# we must undefine any fix ave/* fix before using reset_timestep
if "$(is_defined(fix,avp))" then "unfix avp"
reset_timestep 0

variable elem string "Co Ni Cr Fe Mn"

#-------------------- Force field --------------------------------------------------------
pair_style      m3gnet /mnt/d/lammps/potentials/M3GNET
#pair_style      m3gnet/d3 /mnt/d/lammps/potentials/M3GNET

pair_coeff      * *  M3GNet-MP-2021.2.8-PES Co Ni Cr Fe Mn

# Setup neighbor style
neighbor 1.0 nsq
neigh_modify once no every 1 delay 0 check yes

# Setup output

fix avp all ave/time  10 10 100 c_thermo_press mode vector
thermo		100
thermo_style custom step temp pe press f_avp[1] f_avp[2] f_avp[3] f_avp[4] f_avp[5] f_avp[6]
thermo_modify norm no

# Setup MD

timestep 0.001
fix 4 all nve
fix 5 all langevin 2000 2000 0.01 123457

# Negative deformation

variable delta equal -0.02*18.2285
variable deltaxy equal -0.02*xy
variable deltaxz equal -0.02*xz
variable deltayz equal -0.02*yz
change_box all x delta 0 -0.36457 xy delta -0 xz delta -0 remap units box
Changing box ...
  triclinic box = (-9.11425 -7.2914 -7.2914) to (8.74968 7.2914 7.2914) with tilt (0 0 0)
  triclinic box = (-9.11425 -7.2914 -7.2914) to (8.74968 7.2914 7.2914) with tilt (0 0 0)
  triclinic box = (-9.11425 -7.2914 -7.2914) to (8.74968 7.2914 7.2914) with tilt (0 0 0)

# Run MD

run 1000
No /omp style for force computation currently active
Step          Temp          PotEng         Press         f_avp[1]       f_avp[2]       f_avp[3]       f_avp[4]       f_avp[5]       f_avp[6]
0   1941.0126     -2475.3218      38526.933      0              0              0              0              0              0
Averages over the last 6 of 11 rows, steps 500 to 1000:
Temp PotEng Press f_avp[1] f_avp[2] f_avp[3] f_avp[4] f_avp[5] f_avp[6]
1977.17 -2475.11 33091.6 31154.5 34550.9 35721.4 -3662.69 1087.38 1757.71
Loop time of 221.844 on 1 procs for 1000 steps with 320 atoms

include potential.mod
# NOTE: This script can be modified for different pair styles
# See in.elastic for more info.

# we must undefine any fix ave/* fix before using reset_timestep
if "$(is_defined(fix,avp))" then "unfix avp"
unfix avp
reset_timestep 0

variable elem string "Co Ni Cr Fe Mn"

#-------------------- Force field --------------------------------------------------------
pair_style      m3gnet /mnt/d/lammps/potentials/M3GNET
#pair_style      m3gnet/d3 /mnt/d/lammps/potentials/M3GNET

pair_coeff      * *  M3GNet-MP-2021.2.8-PES Co Ni Cr Fe Mn

# Setup neighbor style
neighbor 1.0 nsq
neigh_modify once no every 1 delay 0 check yes

# Setup output

fix avp all ave/time  10 10 100 c_thermo_press mode vector
thermo		100
thermo_style custom step temp pe press f_avp[1] f_avp[2] f_avp[3] f_avp[4] f_avp[5] f_avp[6]
thermo_modify norm no

# Setup MD

timestep 0.001
fix 4 all nve
fix 5 all langevin 2000 2000 0.01 123457

run 300
No /omp style for force computation currently active
Step          Temp          PotEng         Press         f_avp[1]       f_avp[2]       f_avp[3]       f_avp[4]       f_avp[5]       f_avp[6]
0   1933.4528     -2473.6863      38876.291      0              0              0              0              0              0
Loop time of 67.0688 on 1 procs for 300 steps with 320 atoms

# Obtain new stress tensor

variable pxx1 equal f_avp[1]
variable pyy1 equal f_avp[2]
variable pzz1 equal f_avp[3]
variable pxy1 equal f_avp[4]
variable pxz1 equal f_avp[5]
variable pyz1 equal f_avp[6]

# Compute elastic constant from pressure tensor

variable C1neg equal 126.538595053985
variable C2neg equal 161.557074279731
variable C3neg equal 164.514922762391
variable C4neg equal 17.0922930240128
variable C5neg equal 11.828741309196
variable C6neg equal -40.6620215211116

# Reset box and simulation parameters

clear
package omp 8
box tilt large

The 'box' command has been removed and will be ignored

read_restart restart.equil
Reading restart file ...
  restart file = 2 Aug 2023, LAMMPS = 2 Aug 2023
  restoring atom style atomic from restart
  triclinic box = (-9.11425 -7.2914 -7.2914) to (9.11425 7.2914 7.2914) with tilt (0 0 0)
  pair style m3gnet stores no restart info
  320 atoms
  read_restart CPU = 0.003 seconds
include potential.mod
# NOTE: This script can be modified for different pair styles
# See in.elastic for more info.

# we must undefine any fix ave/* fix before using reset_timestep
if "$(is_defined(fix,avp))" then "unfix avp"
reset_timestep 0

variable elem string "Co Ni Cr Fe Mn"

#-------------------- Force field --------------------------------------------------------
pair_style      m3gnet /mnt/d/lammps/potentials/M3GNET
#pair_style      m3gnet/d3 /mnt/d/lammps/potentials/M3GNET

pair_coeff      * *  M3GNet-MP-2021.2.8-PES Co Ni Cr Fe Mn

# Setup neighbor style
neighbor 1.0 nsq
neigh_modify once no every 1 delay 0 check yes

# Setup output

fix avp all ave/time  10 10 100 c_thermo_press mode vector
thermo		100
thermo_style custom step temp pe press f_avp[1] f_avp[2] f_avp[3] f_avp[4] f_avp[5] f_avp[6]
thermo_modify norm no

# Setup MD

timestep 0.001
fix 4 all nve
fix 5 all langevin 2000 2000 0.01 123457

# Positive deformation

variable delta equal 0.02*18.2285
variable deltaxy equal 0.02*xy
variable deltaxz equal 0.02*xz
variable deltayz equal 0.02*yz
change_box all x delta 0 0.36457 xy delta 0 xz delta 0 remap units box
Changing box ...
  triclinic box = (-9.11425 -7.2914 -7.2914) to (9.47882 7.2914 7.2914) with tilt (0 0 0)
  triclinic box = (-9.11425 -7.2914 -7.2914) to (9.47882 7.2914 7.2914) with tilt (0 0 0)
  triclinic box = (-9.11425 -7.2914 -7.2914) to (9.47882 7.2914 7.2914) with tilt (0 0 0)

# Run MD

run 1000
No /omp style for force computation currently active
Step          Temp          PotEng         Press         f_avp[1]       f_avp[2]       f_avp[3]       f_avp[4]       f_avp[5]       f_avp[6]
0   1941.0126     -2473.2014     -27653.175      0              0              0              0              0              0
Averages over the last 6 of 11 rows, steps 500 to 1000:
Temp PotEng Press f_avp[1] f_avp[2] f_avp[3] f_avp[4] f_avp[5] f_avp[6]
1962.69 -2463.87 -16305.8 -15824 -18698.6 -13830.4 -1413.58 -268.619 -1090.44
Loop time of 200.453 on 1 procs for 1000 steps with 320 atoms

include potential.mod
# NOTE: This script can be modified for different pair styles
# See in.elastic for more info.

# we must undefine any fix ave/* fix before using reset_timestep
if "$(is_defined(fix,avp))" then "unfix avp"
unfix avp
reset_timestep 0

variable elem string "Co Ni Cr Fe Mn"

#-------------------- Force field --------------------------------------------------------
pair_style      m3gnet /mnt/d/lammps/potentials/M3GNET
#pair_style      m3gnet/d3 /mnt/d/lammps/potentials/M3GNET

pair_coeff      * *  M3GNet-MP-2021.2.8-PES Co Ni Cr Fe Mn

# Setup neighbor style
neighbor 1.0 nsq
neigh_modify once no every 1 delay 0 check yes

# Setup output

fix avp all ave/time  10 10 100 c_thermo_press mode vector
thermo		100
thermo_style custom step temp pe press f_avp[1] f_avp[2] f_avp[3] f_avp[4] f_avp[5] f_avp[6]
thermo_modify norm no

# Setup MD

timestep 0.001
fix 4 all nve
fix 5 all langevin 2000 2000 0.01 123457

run 300
No /omp style for force computation currently active
Step          Temp          PotEng         Press         f_avp[1]       f_avp[2]       f_avp[3]       f_avp[4]       f_avp[5]       f_avp[6]
0   1908.9303     -2462.2332     -14370.903      0              0              0              0              0              0
Loop time of 60.0731 on 1 procs for 300 steps with 320 atoms

# Obtain new stress tensor

variable tmp equal pe
variable e1 equal -2465.64624023438
variable tmp equal press
variable p1 equal -18971.7308302716
variable tmp equal pxx
variable pxx1 equal -11215.5597873964
variable tmp equal pyy
variable pyy1 equal -27200.9586142391
variable tmp equal pzz
variable pzz1 equal -18498.6740891793
variable tmp equal pxy
variable pxy1 equal -5682.40503759131
variable tmp equal pxz
variable pxz1 equal -8371.22876361551
variable tmp equal pyz
variable pyz1 equal -375.421211001874

# Compute elastic constant from pressure tensor

variable C1pos equal 38.9613511296881
variable C2pos equal 156.345721040274
variable C3pos equal 76.5499382697874
variable C4pos equal -4.22540693737523
variable C5pos equal 46.4065987028263
variable C6pos equal 21.3034812820101

# Combine positive and negative

variable C11 equal 0.5*(126.538595053985+38.9613511296881)
variable C21 equal 0.5*(161.557074279731+156.345721040274)
variable C31 equal 0.5*(164.514922762391+76.5499382697874)
variable C41 equal 0.5*(17.0922930240128+-4.22540693737523)
variable C51 equal 0.5*(11.828741309196+46.4065987028263)
variable C61 equal 0.5*(-40.6620215211116+21.3034812820101)

# Delete dir to make sure it is not reused

variable dir delete

# uyy Perturbation

variable dir equal 2
include displace.mod
# NOTE: This script should not need to be
# modified. See in.elastic for more info.
#
# Find which reference length to use

variable len0 equal 14.5828

# Reset box and simulation parameters

clear
package omp 8
box tilt large

The 'box' command has been removed and will be ignored

read_restart restart.equil
Reading restart file ...
  restart file = 2 Aug 2023, LAMMPS = 2 Aug 2023
  restoring atom style atomic from restart
  triclinic box = (-9.11425 -7.2914 -7.2914) to (9.11425 7.2914 7.2914) with tilt (0 0 0)
  pair style m3gnet stores no restart info
  320 atoms
  read_restart CPU = 0.002 seconds
include potential.mod
# NOTE: This script can be modified for different pair styles
# See in.elastic for more info.

# we must undefine any fix ave/* fix before using reset_timestep
if "$(is_defined(fix,avp))" then "unfix avp"
reset_timestep 0

variable elem string "Co Ni Cr Fe Mn"

#-------------------- Force field --------------------------------------------------------
pair_style      m3gnet /mnt/d/lammps/potentials/M3GNET
#pair_style      m3gnet/d3 /mnt/d/lammps/potentials/M3GNET

pair_coeff      * *  M3GNet-MP-2021.2.8-PES Co Ni Cr Fe Mn

# Setup neighbor style
neighbor 1.0 nsq
neigh_modify once no every 1 delay 0 check yes

# Setup output

fix avp all ave/time  10 10 100 c_thermo_press mode vector
thermo		100
thermo_style custom step temp pe press f_avp[1] f_avp[2] f_avp[3] f_avp[4] f_avp[5] f_avp[6]
thermo_modify norm no

# Setup MD

timestep 0.001
fix 4 all nve
fix 5 all langevin 2000 2000 0.01 123457

# Negative deformation

variable delta equal -0.02*14.5828
variable deltaxy equal -0.02*xy
variable deltaxz equal -0.02*xz
variable deltayz equal -0.02*yz
change_box all y delta 0 -0.291656 yz delta -0 remap units box
Changing box ...
  triclinic box = (-9.11425 -7.2914 -7.2914) to (9.11425 6.999744 7.2914) with tilt (0 0 0)
  triclinic box = (-9.11425 -7.2914 -7.2914) to (9.11425 6.999744 7.2914) with tilt (0 0 0)

# Run MD

run 1000
No /omp style for force computation currently active
Step          Temp          PotEng         Press         f_avp[1]       f_avp[2]       f_avp[3]       f_avp[4]       f_avp[5]       f_avp[6]
0   1941.0126     -2475.1252      38976.459      0              0              0              0              0              0
Averages over the last 6 of 11 rows, steps 500 to 1000:
Temp PotEng Press f_avp[1] f_avp[2] f_avp[3] f_avp[4] f_avp[5] f_avp[6]
1963.84 -2474.69 33797 33704.6 29867.8 37526 -2121.94 -57.4396 -458.771
Loop time of 210.07 on 1 procs for 1000 steps with 320 atoms

include potential.mod
# NOTE: This script can be modified for different pair styles
# See in.elastic for more info.

# we must undefine any fix ave/* fix before using reset_timestep
if "$(is_defined(fix,avp))" then "unfix avp"
unfix avp
reset_timestep 0

variable elem string "Co Ni Cr Fe Mn"

#-------------------- Force field --------------------------------------------------------
pair_style      m3gnet /mnt/d/lammps/potentials/M3GNET
#pair_style      m3gnet/d3 /mnt/d/lammps/potentials/M3GNET

pair_coeff      * *  M3GNet-MP-2021.2.8-PES Co Ni Cr Fe Mn

# Setup neighbor style
neighbor 1.0 nsq
neigh_modify once no every 1 delay 0 check yes

# Setup output

fix avp all ave/time  10 10 100 c_thermo_press mode vector
thermo		100
thermo_style custom step temp pe press f_avp[1] f_avp[2] f_avp[3] f_avp[4] f_avp[5] f_avp[6]
thermo_modify norm no

# Setup MD

timestep 0.001
fix 4 all nve
fix 5 all langevin 2000 2000 0.01 123457

run 300
No /omp style for force computation currently active
Step          Temp          PotEng         Press         f_avp[1]       f_avp[2]       f_avp[3]       f_avp[4]       f_avp[5]       f_avp[6]
0   1924.6956     -2474.2512      35511.313      0              0              0              0              0              0
Loop time of 63.2852 on 1 procs for 300 steps with 320 atoms

# Obtain new stress tensor

variable pxx1 equal f_avp[1]
variable pyy1 equal f_avp[2]
variable pzz1 equal f_avp[3]
variable pxy1 equal f_avp[4]
variable pxz1 equal f_avp[5]
variable pyz1 equal f_avp[6]

# Compute elastic constant from pressure tensor

variable C1neg equal 161.771793371878
variable C2neg equal 126.822538975947
variable C3neg equal 211.655303636312
variable C4neg equal -1.7113184715411
variable C5neg equal -0.90904081830239
variable C6neg equal -1.61440084259485

# Reset box and simulation parameters

clear
package omp 8
box tilt large

The 'box' command has been removed and will be ignored

read_restart restart.equil
Reading restart file ...
  restart file = 2 Aug 2023, LAMMPS = 2 Aug 2023
  restoring atom style atomic from restart
  triclinic box = (-9.11425 -7.2914 -7.2914) to (9.11425 7.2914 7.2914) with tilt (0 0 0)
  pair style m3gnet stores no restart info
  320 atoms
  read_restart CPU = 0.004 seconds
include potential.mod
# NOTE: This script can be modified for different pair styles
# See in.elastic for more info.

# we must undefine any fix ave/* fix before using reset_timestep
if "$(is_defined(fix,avp))" then "unfix avp"
reset_timestep 0

variable elem string "Co Ni Cr Fe Mn"

#-------------------- Force field --------------------------------------------------------
pair_style      m3gnet /mnt/d/lammps/potentials/M3GNET
#pair_style      m3gnet/d3 /mnt/d/lammps/potentials/M3GNET

pair_coeff      * *  M3GNet-MP-2021.2.8-PES Co Ni Cr Fe Mn

# Setup neighbor style
neighbor 1.0 nsq
neigh_modify once no every 1 delay 0 check yes

# Setup output

fix avp all ave/time  10 10 100 c_thermo_press mode vector
thermo		100
thermo_style custom step temp pe press f_avp[1] f_avp[2] f_avp[3] f_avp[4] f_avp[5] f_avp[6]
thermo_modify norm no

# Setup MD

timestep 0.001
fix 4 all nve
fix 5 all langevin 2000 2000 0.01 123457

# Positive deformation

variable delta equal 0.02*14.5828
variable deltaxy equal 0.02*xy
variable deltaxz equal 0.02*xz
variable deltayz equal 0.02*yz
change_box all y delta 0 0.291656 yz delta 0 remap units box
Changing box ...
  triclinic box = (-9.11425 -7.2914 -7.2914) to (9.11425 7.583056 7.2914) with tilt (0 0 0)
  triclinic box = (-9.11425 -7.2914 -7.2914) to (9.11425 7.583056 7.2914) with tilt (0 0 0)

# Run MD

run 1000
No /omp style for force computation currently active
Step          Temp          PotEng         Press         f_avp[1]       f_avp[2]       f_avp[3]       f_avp[4]       f_avp[5]       f_avp[6]
0   1941.0126     -2473.406      -27781.517      0              0              0              0              0              0
Averages over the last 6 of 11 rows, steps 500 to 1000:
Temp PotEng Press f_avp[1] f_avp[2] f_avp[3] f_avp[4] f_avp[5] f_avp[6]
1961.67 -2463.34 -15760.3 -13153.1 -20808.1 -12834 -1436.44 -931.165 -741.61
Loop time of 201.922 on 1 procs for 1000 steps with 320 atoms

include potential.mod
# NOTE: This script can be modified for different pair styles
# See in.elastic for more info.

# we must undefine any fix ave/* fix before using reset_timestep
if "$(is_defined(fix,avp))" then "unfix avp"
unfix avp
reset_timestep 0

variable elem string "Co Ni Cr Fe Mn"

#-------------------- Force field --------------------------------------------------------
pair_style      m3gnet /mnt/d/lammps/potentials/M3GNET
#pair_style      m3gnet/d3 /mnt/d/lammps/potentials/M3GNET

pair_coeff      * *  M3GNet-MP-2021.2.8-PES Co Ni Cr Fe Mn

# Setup neighbor style
neighbor 1.0 nsq
neigh_modify once no every 1 delay 0 check yes

# Setup output

fix avp all ave/time  10 10 100 c_thermo_press mode vector
thermo		100
thermo_style custom step temp pe press f_avp[1] f_avp[2] f_avp[3] f_avp[4] f_avp[5] f_avp[6]
thermo_modify norm no

# Setup MD

timestep 0.001
fix 4 all nve
fix 5 all langevin 2000 2000 0.01 123457

run 300
No /omp style for force computation currently active
Step          Temp          PotEng         Press         f_avp[1]       f_avp[2]       f_avp[3]       f_avp[4]       f_avp[5]       f_avp[6]
0   1907.5816     -2461.814      -14409.735      0              0              0              0              0              0
Loop time of 60.3395 on 1 procs for 300 steps with 320 atoms

# Obtain new stress tensor

variable tmp equal pe
variable e1 equal -2463.13745117188
variable tmp equal press
variable p1 equal -19547.3458271332
variable tmp equal pxx
variable pxx1 equal -16707.933141132
variable tmp equal pyy
variable pyy1 equal -24451.4923085557
variable tmp equal pzz
variable pzz1 equal -17482.6120317119
variable tmp equal pxy
variable pxy1 equal -5133.46887376757
variable tmp equal pxz
variable pxz1 equal -895.265544561849
variable tmp equal pyz
variable pyz1 equal -4123.24099761348

# Compute elastic constant from pressure tensor

variable C1pos equal 66.4232178983662
variable C2pos equal 142.598389511857
variable C3pos equal 71.4696279824504
variable C4pos equal 14.5136919956828
variable C5pos equal 9.02678260755803
variable C6pos equal 18.5588004628913

# Combine positive and negative

variable C12 equal 0.5*(161.771793371878+66.4232178983662)
variable C22 equal 0.5*(126.822538975947+142.598389511857)
variable C32 equal 0.5*(211.655303636312+71.4696279824504)
variable C42 equal 0.5*(-1.7113184715411+14.5136919956828)
variable C52 equal 0.5*(-0.90904081830239+9.02678260755803)
variable C62 equal 0.5*(-1.61440084259485+18.5588004628913)

# Delete dir to make sure it is not reused

variable dir delete

# uzz Perturbation

variable dir equal 3
include displace.mod
# NOTE: This script should not need to be
# modified. See in.elastic for more info.
#
# Find which reference length to use

variable len0 equal 14.5828

# Reset box and simulation parameters

clear
package omp 8
box tilt large

The 'box' command has been removed and will be ignored

read_restart restart.equil
Reading restart file ...
  restart file = 2 Aug 2023, LAMMPS = 2 Aug 2023
  restoring atom style atomic from restart
  triclinic box = (-9.11425 -7.2914 -7.2914) to (9.11425 7.2914 7.2914) with tilt (0 0 0)
  pair style m3gnet stores no restart info
  320 atoms
  read_restart CPU = 0.004 seconds
include potential.mod
# NOTE: This script can be modified for different pair styles
# See in.elastic for more info.

# we must undefine any fix ave/* fix before using reset_timestep
if "$(is_defined(fix,avp))" then "unfix avp"
reset_timestep 0

variable elem string "Co Ni Cr Fe Mn"

#-------------------- Force field --------------------------------------------------------
pair_style      m3gnet /mnt/d/lammps/potentials/M3GNET
#pair_style      m3gnet/d3 /mnt/d/lammps/potentials/M3GNET

pair_coeff      * *  M3GNet-MP-2021.2.8-PES Co Ni Cr Fe Mn

# Setup neighbor style
neighbor 1.0 nsq
neigh_modify once no every 1 delay 0 check yes

# Setup output

fix avp all ave/time  10 10 100 c_thermo_press mode vector
thermo		100
thermo_style custom step temp pe press f_avp[1] f_avp[2] f_avp[3] f_avp[4] f_avp[5] f_avp[6]
thermo_modify norm no

# Setup MD

timestep 0.001
fix 4 all nve
fix 5 all langevin 2000 2000 0.01 123457

# Negative deformation

variable delta equal -0.02*14.5828
variable deltaxy equal -0.02*xy
variable deltaxz equal -0.02*xz
variable deltayz equal -0.02*yz
change_box all z delta 0 -0.291656 remap units box
Changing box ...
  triclinic box = (-9.11425 -7.2914 -7.2914) to (9.11425 7.2914 6.999744) with tilt (0 0 0)

# Run MD

run 1000
No /omp style for force computation currently active
Step          Temp          PotEng         Press         f_avp[1]       f_avp[2]       f_avp[3]       f_avp[4]       f_avp[5]       f_avp[6]
0   1941.0126     -2474.8049      41437.447      0              0              0              0              0              0
Averages over the last 6 of 11 rows, steps 500 to 1000:
Temp PotEng Press f_avp[1] f_avp[2] f_avp[3] f_avp[4] f_avp[5] f_avp[6]
1965.3 -2474.58 35063.9 35819.4 29575.2 39825.5 -1957.67 -1114.6 -219.699
Loop time of 208.977 on 1 procs for 1000 steps with 320 atoms

include potential.mod
# NOTE: This script can be modified for different pair styles
# See in.elastic for more info.

# we must undefine any fix ave/* fix before using reset_timestep
if "$(is_defined(fix,avp))" then "unfix avp"
unfix avp
reset_timestep 0

variable elem string "Co Ni Cr Fe Mn"

#-------------------- Force field --------------------------------------------------------
pair_style      m3gnet /mnt/d/lammps/potentials/M3GNET
#pair_style      m3gnet/d3 /mnt/d/lammps/potentials/M3GNET

pair_coeff      * *  M3GNet-MP-2021.2.8-PES Co Ni Cr Fe Mn

# Setup neighbor style
neighbor 1.0 nsq
neigh_modify once no every 1 delay 0 check yes

# Setup output

fix avp all ave/time  10 10 100 c_thermo_press mode vector
thermo		100
thermo_style custom step temp pe press f_avp[1] f_avp[2] f_avp[3] f_avp[4] f_avp[5] f_avp[6]
thermo_modify norm no

# Setup MD

timestep 0.001
fix 4 all nve
fix 5 all langevin 2000 2000 0.01 123457

run 300
No /omp style for force computation currently active
Step          Temp          PotEng         Press         f_avp[1]       f_avp[2]       f_avp[3]       f_avp[4]       f_avp[5]       f_avp[6]
0   1926.2561     -2474.1021      36012.596      0              0              0              0              0              0
Loop time of 63.5027 on 1 procs for 300 steps with 320 atoms

# Obtain new stress tensor

variable pxx1 equal f_avp[1]
variable pyy1 equal f_avp[2]
variable pzz1 equal f_avp[3]
variable pxy1 equal f_avp[4]
variable pxz1 equal f_avp[5]
variable pyz1 equal f_avp[6]

# Compute elastic constant from pressure tensor

variable C1neg equal 197.330269992795
variable C2neg equal 108.68874698116
variable C3neg equal 215.339768050528
variable C4neg equal 0.9137981503103
variable C5neg equal -18.5475491016378
variable C6neg equal -2.39678643731725

# Reset box and simulation parameters

clear
package omp 8
box tilt large

The 'box' command has been removed and will be ignored

read_restart restart.equil
Reading restart file ...
  restart file = 2 Aug 2023, LAMMPS = 2 Aug 2023
  restoring atom style atomic from restart
  triclinic box = (-9.11425 -7.2914 -7.2914) to (9.11425 7.2914 7.2914) with tilt (0 0 0)
  pair style m3gnet stores no restart info
  320 atoms
  read_restart CPU = 0.006 seconds
include potential.mod
# NOTE: This script can be modified for different pair styles
# See in.elastic for more info.

# we must undefine any fix ave/* fix before using reset_timestep
if "$(is_defined(fix,avp))" then "unfix avp"
reset_timestep 0

variable elem string "Co Ni Cr Fe Mn"

#-------------------- Force field --------------------------------------------------------
pair_style      m3gnet /mnt/d/lammps/potentials/M3GNET
#pair_style      m3gnet/d3 /mnt/d/lammps/potentials/M3GNET

pair_coeff      * *  M3GNet-MP-2021.2.8-PES Co Ni Cr Fe Mn

# Setup neighbor style
neighbor 1.0 nsq
neigh_modify once no every 1 delay 0 check yes

# Setup output

fix avp all ave/time  10 10 100 c_thermo_press mode vector
thermo		100
thermo_style custom step temp pe press f_avp[1] f_avp[2] f_avp[3] f_avp[4] f_avp[5] f_avp[6]
thermo_modify norm no

# Setup MD

timestep 0.001
fix 4 all nve
fix 5 all langevin 2000 2000 0.01 123457

# Positive deformation

variable delta equal 0.02*14.5828
variable deltaxy equal 0.02*xy
variable deltaxz equal 0.02*xz
variable deltayz equal 0.02*yz
change_box all z delta 0 0.291656 remap units box
Changing box ...
  triclinic box = (-9.11425 -7.2914 -7.2914) to (9.11425 7.2914 7.583056) with tilt (0 0 0)

# Run MD

run 1000
No /omp style for force computation currently active
Step          Temp          PotEng         Press         f_avp[1]       f_avp[2]       f_avp[3]       f_avp[4]       f_avp[5]       f_avp[6]
0   1941.0126     -2473.4861     -29276.741      0              0              0              0              0              0
Averages over the last 6 of 11 rows, steps 500 to 1000:
Temp PotEng Press f_avp[1] f_avp[2] f_avp[3] f_avp[4] f_avp[5] f_avp[6]
1961.12 -2463.48 -16585 -14944 -19663.9 -15243 -1612.91 56.77 -1026.16
Loop time of 202.671 on 1 procs for 1000 steps with 320 atoms

include potential.mod
# NOTE: This script can be modified for different pair styles
# See in.elastic for more info.

# we must undefine any fix ave/* fix before using reset_timestep
if "$(is_defined(fix,avp))" then "unfix avp"
unfix avp
reset_timestep 0

variable elem string "Co Ni Cr Fe Mn"

#-------------------- Force field --------------------------------------------------------
pair_style      m3gnet /mnt/d/lammps/potentials/M3GNET
#pair_style      m3gnet/d3 /mnt/d/lammps/potentials/M3GNET

pair_coeff      * *  M3GNet-MP-2021.2.8-PES Co Ni Cr Fe Mn

# Setup neighbor style
neighbor 1.0 nsq
neigh_modify once no every 1 delay 0 check yes

# Setup output

fix avp all ave/time  10 10 100 c_thermo_press mode vector
thermo		100
thermo_style custom step temp pe press f_avp[1] f_avp[2] f_avp[3] f_avp[4] f_avp[5] f_avp[6]
thermo_modify norm no

# Setup MD

timestep 0.001
fix 4 all nve
fix 5 all langevin 2000 2000 0.01 123457

run 300
No /omp style for force computation currently active
Step          Temp          PotEng         Press         f_avp[1]       f_avp[2]       f_avp[3]       f_avp[4]       f_avp[5]       f_avp[6]
0   1907.6878     -2462.0154     -14624.354      0              0              0              0              0              0
Loop time of 60.6645 on 1 procs for 300 steps with 320 atoms

# Obtain new stress tensor

variable tmp equal pe
variable e1 equal -2463.83740234375
variable tmp equal press
variable p1 equal -22622.4183894892
variable tmp equal pxx
variable pxx1 equal -22358.9437835149
variable tmp equal pyy
variable pyy1 equal -26522.5463833233
variable tmp equal pzz
variable pzz1 equal -18985.7650016293
variable tmp equal pxy
variable pxy1 equal -11103.6392904203
variable tmp equal pxz
variable pxz1 equal 441.547061359852
variable tmp equal pyz
variable pyz1 equal -4376.34610979811

# Compute elastic constant from pressure tensor

variable C1pos equal 94.6782711102806
variable C2pos equal 152.953659885695
variable C3pos equal 78.9853928320374
variable C4pos equal 15.7792175566059
variable C5pos equal 2.34271957794953
variable C6pos equal 48.409652546155

# Combine positive and negative

variable C13 equal 0.5*(197.330269992795+94.6782711102806)
variable C23 equal 0.5*(108.68874698116+152.953659885695)
variable C33 equal 0.5*(215.339768050528+78.9853928320374)
variable C43 equal 0.5*(0.9137981503103+15.7792175566059)
variable C53 equal 0.5*(-18.5475491016378+2.34271957794953)
variable C63 equal 0.5*(-2.39678643731725+48.409652546155)

# Delete dir to make sure it is not reused

variable dir delete

# uyz Perturbation

variable dir equal 4
include displace.mod
# NOTE: This script should not need to be
# modified. See in.elastic for more info.
#
# Find which reference length to use

variable len0 equal 14.5828

# Reset box and simulation parameters

clear
package omp 8
box tilt large

The 'box' command has been removed and will be ignored

read_restart restart.equil
Reading restart file ...
  restart file = 2 Aug 2023, LAMMPS = 2 Aug 2023
  restoring atom style atomic from restart
  triclinic box = (-9.11425 -7.2914 -7.2914) to (9.11425 7.2914 7.2914) with tilt (0 0 0)
  pair style m3gnet stores no restart info
  320 atoms
  read_restart CPU = 0.003 seconds
include potential.mod
# NOTE: This script can be modified for different pair styles
# See in.elastic for more info.

# we must undefine any fix ave/* fix before using reset_timestep
if "$(is_defined(fix,avp))" then "unfix avp"
reset_timestep 0

variable elem string "Co Ni Cr Fe Mn"

#-------------------- Force field --------------------------------------------------------
pair_style      m3gnet /mnt/d/lammps/potentials/M3GNET
#pair_style      m3gnet/d3 /mnt/d/lammps/potentials/M3GNET

pair_coeff      * *  M3GNet-MP-2021.2.8-PES Co Ni Cr Fe Mn

# Setup neighbor style
neighbor 1.0 nsq
neigh_modify once no every 1 delay 0 check yes

# Setup output

fix avp all ave/time  10 10 100 c_thermo_press mode vector
thermo		100
thermo_style custom step temp pe press f_avp[1] f_avp[2] f_avp[3] f_avp[4] f_avp[5] f_avp[6]
thermo_modify norm no

# Setup MD

timestep 0.001
fix 4 all nve
fix 5 all langevin 2000 2000 0.01 123457

# Negative deformation

variable delta equal -0.02*14.5828
variable deltaxy equal -0.02*xy
variable deltaxz equal -0.02*xz
variable deltayz equal -0.02*yz
change_box all yz delta -0.291656 remap units box
Changing box ...
  triclinic box = (-9.11425 -7.2914 -7.2914) to (9.11425 7.2914 7.2914) with tilt (0 0 -0.291656)

# Run MD

run 1000
No /omp style for force computation currently active
Step          Temp          PotEng         Press         f_avp[1]       f_avp[2]       f_avp[3]       f_avp[4]       f_avp[5]       f_avp[6]
0   1941.0126     -2474.9949      3734.5486      0              0              0              0              0              0
Averages over the last 6 of 11 rows, steps 500 to 1000:
Temp PotEng Press f_avp[1] f_avp[2] f_avp[3] f_avp[4] f_avp[5] f_avp[6]
1951.65 -2466.67 11201.4 7022.3 10443.8 16146.9 6612.6 211.139 -1399.62
Loop time of 206.015 on 1 procs for 1000 steps with 320 atoms

include potential.mod
# NOTE: This script can be modified for different pair styles
# See in.elastic for more info.

# we must undefine any fix ave/* fix before using reset_timestep
if "$(is_defined(fix,avp))" then "unfix avp"
unfix avp
reset_timestep 0

variable elem string "Co Ni Cr Fe Mn"

#-------------------- Force field --------------------------------------------------------
pair_style      m3gnet /mnt/d/lammps/potentials/M3GNET
#pair_style      m3gnet/d3 /mnt/d/lammps/potentials/M3GNET

pair_coeff      * *  M3GNet-MP-2021.2.8-PES Co Ni Cr Fe Mn

# Setup neighbor style
neighbor 1.0 nsq
neigh_modify once no every 1 delay 0 check yes

# Setup output

fix avp all ave/time  10 10 100 c_thermo_press mode vector
thermo		100
thermo_style custom step temp pe press f_avp[1] f_avp[2] f_avp[3] f_avp[4] f_avp[5] f_avp[6]
thermo_modify norm no

# Setup MD

timestep 0.001
fix 4 all nve
fix 5 all langevin 2000 2000 0.01 123457

run 300
No /omp style for force computation currently active
Step          Temp          PotEng         Press         f_avp[1]       f_avp[2]       f_avp[3]       f_avp[4]       f_avp[5]       f_avp[6]
0   1947.5749     -2464.6855      11126.752      0              0              0              0              0              0
Loop time of 61.6757 on 1 procs for 300 steps with 320 atoms

# Obtain new stress tensor

variable pxx1 equal f_avp[1]
variable pyy1 equal f_avp[2]
variable pzz1 equal f_avp[3]
variable pxy1 equal f_avp[4]
variable pxz1 equal f_avp[5]
variable pyz1 equal f_avp[6]

# Compute elastic constant from pressure tensor

variable C1neg equal 55.1061803088652
variable C2neg equal 57.4892703482866
variable C3neg equal 97.1266922760641
variable C4neg equal -24.5776371064558
variable C5neg equal -7.07204192332397
variable C6neg equal 24.6435449372758

# Reset box and simulation parameters

clear
package omp 8
box tilt large

The 'box' command has been removed and will be ignored

read_restart restart.equil
Reading restart file ...
  restart file = 2 Aug 2023, LAMMPS = 2 Aug 2023
  restoring atom style atomic from restart
  triclinic box = (-9.11425 -7.2914 -7.2914) to (9.11425 7.2914 7.2914) with tilt (0 0 0)
  pair style m3gnet stores no restart info
  320 atoms
  read_restart CPU = 0.003 seconds
include potential.mod
# NOTE: This script can be modified for different pair styles
# See in.elastic for more info.

# we must undefine any fix ave/* fix before using reset_timestep
if "$(is_defined(fix,avp))" then "unfix avp"
reset_timestep 0

variable elem string "Co Ni Cr Fe Mn"

#-------------------- Force field --------------------------------------------------------
pair_style      m3gnet /mnt/d/lammps/potentials/M3GNET
#pair_style      m3gnet/d3 /mnt/d/lammps/potentials/M3GNET

pair_coeff      * *  M3GNet-MP-2021.2.8-PES Co Ni Cr Fe Mn

# Setup neighbor style
neighbor 1.0 nsq
neigh_modify once no every 1 delay 0 check yes

# Setup output

fix avp all ave/time  10 10 100 c_thermo_press mode vector
thermo		100
thermo_style custom step temp pe press f_avp[1] f_avp[2] f_avp[3] f_avp[4] f_avp[5] f_avp[6]
thermo_modify norm no

# Setup MD

timestep 0.001
fix 4 all nve
fix 5 all langevin 2000 2000 0.01 123457

# Positive deformation

variable delta equal 0.02*14.5828
variable deltaxy equal 0.02*xy
variable deltaxz equal 0.02*xz
variable deltayz equal 0.02*yz
change_box all yz delta 0.291656 remap units box
Changing box ...
  triclinic box = (-9.11425 -7.2914 -7.2914) to (9.11425 7.2914 7.2914) with tilt (0 0 0.291656)

# Run MD

run 1000
No /omp style for force computation currently active
Step          Temp          PotEng         Press         f_avp[1]       f_avp[2]       f_avp[3]       f_avp[4]       f_avp[5]       f_avp[6]
0   1941.0126     -2474.7056      4126.6168      0              0              0              0              0              0
Averages over the last 6 of 11 rows, steps 500 to 1000:
Temp PotEng Press f_avp[1] f_avp[2] f_avp[3] f_avp[4] f_avp[5] f_avp[6]
1962.16 -2471.73 3963.8 2112.7 -627.349 7308.79 -9743.14 -1268.83 -4443.96
Loop time of 206.442 on 1 procs for 1000 steps with 320 atoms

include potential.mod
# NOTE: This script can be modified for different pair styles
# See in.elastic for more info.

# we must undefine any fix ave/* fix before using reset_timestep
if "$(is_defined(fix,avp))" then "unfix avp"
unfix avp
reset_timestep 0

variable elem string "Co Ni Cr Fe Mn"

#-------------------- Force field --------------------------------------------------------
pair_style      m3gnet /mnt/d/lammps/potentials/M3GNET
#pair_style      m3gnet/d3 /mnt/d/lammps/potentials/M3GNET

pair_coeff      * *  M3GNet-MP-2021.2.8-PES Co Ni Cr Fe Mn

# Setup neighbor style
neighbor 1.0 nsq
neigh_modify once no every 1 delay 0 check yes

# Setup output

fix avp all ave/time  10 10 100 c_thermo_press mode vector
thermo		100
thermo_style custom step temp pe press f_avp[1] f_avp[2] f_avp[3] f_avp[4] f_avp[5] f_avp[6]
thermo_modify norm no

# Setup MD

timestep 0.001
fix 4 all nve
fix 5 all langevin 2000 2000 0.01 123457

run 300
No /omp style for force computation currently active
Step          Temp          PotEng         Press         f_avp[1]       f_avp[2]       f_avp[3]       f_avp[4]       f_avp[5]       f_avp[6]
0   1914.9293     -2469.0676      8410.7305      0              0              0              0              0              0
Loop time of 61.6979 on 1 procs for 300 steps with 320 atoms

# Obtain new stress tensor

variable tmp equal pe
variable e1 equal -2470.55029296875
variable tmp equal press
variable p1 equal 5183.6700902461
variable tmp equal pxx
variable pxx1 equal 6819.37518424704
variable tmp equal pyy
variable pyy1 equal -7132.5450380813
variable tmp equal pzz
variable pzz1 equal 15864.1801245726
variable tmp equal pxy
variable pxy1 equal -13104.7261852503
variable tmp equal pxz
variable pxz1 equal -6028.64607742819
variable tmp equal pyz
variable pyz1 equal -1724.86929416328

# Compute elastic constant from pressure tensor

variable C1pos equal -51.2133237285291
variable C2pos equal 56.0036531594854
variable C3pos equal -95.2643327989721
variable C4pos equal 2.5218334784318
variable C5pos equal 34.6936852718897
variable C6pos equal 58.415087020305

# Combine positive and negative

variable C14 equal 0.5*(55.1061803088652+-51.2133237285291)
variable C24 equal 0.5*(57.4892703482866+56.0036531594854)
variable C34 equal 0.5*(97.1266922760641+-95.2643327989721)
variable C44 equal 0.5*(-24.5776371064558+2.5218334784318)
variable C54 equal 0.5*(-7.07204192332397+34.6936852718897)
variable C64 equal 0.5*(24.6435449372758+58.415087020305)

# Delete dir to make sure it is not reused

variable dir delete

# uxz Perturbation

variable dir equal 5
include displace.mod
# NOTE: This script should not need to be
# modified. See in.elastic for more info.
#
# Find which reference length to use

variable len0 equal 14.5828

# Reset box and simulation parameters

clear
package omp 8
box tilt large

The 'box' command has been removed and will be ignored

read_restart restart.equil
Reading restart file ...
  restart file = 2 Aug 2023, LAMMPS = 2 Aug 2023
  restoring atom style atomic from restart
  triclinic box = (-9.11425 -7.2914 -7.2914) to (9.11425 7.2914 7.2914) with tilt (0 0 0)
  pair style m3gnet stores no restart info
  320 atoms
  read_restart CPU = 0.003 seconds
include potential.mod
# NOTE: This script can be modified for different pair styles
# See in.elastic for more info.

# we must undefine any fix ave/* fix before using reset_timestep
if "$(is_defined(fix,avp))" then "unfix avp"
reset_timestep 0

variable elem string "Co Ni Cr Fe Mn"

#-------------------- Force field --------------------------------------------------------
pair_style      m3gnet /mnt/d/lammps/potentials/M3GNET
#pair_style      m3gnet/d3 /mnt/d/lammps/potentials/M3GNET

pair_coeff      * *  M3GNet-MP-2021.2.8-PES Co Ni Cr Fe Mn

# Setup neighbor style
neighbor 1.0 nsq
neigh_modify once no every 1 delay 0 check yes

# Setup output

fix avp all ave/time  10 10 100 c_thermo_press mode vector
thermo		100
thermo_style custom step temp pe press f_avp[1] f_avp[2] f_avp[3] f_avp[4] f_avp[5] f_avp[6]
thermo_modify norm no

# Setup MD

timestep 0.001
fix 4 all nve
fix 5 all langevin 2000 2000 0.01 123457

# Negative deformation

variable delta equal -0.02*14.5828
variable deltaxy equal -0.02*xy
variable deltaxz equal -0.02*xz
variable deltayz equal -0.02*yz
change_box all xz delta -0.291656 remap units box
Changing box ...
  triclinic box = (-9.11425 -7.2914 -7.2914) to (9.11425 7.2914 7.2914) with tilt (0 -0.291656 0)

# Run MD

run 1000
No /omp style for force computation currently active
Step          Temp          PotEng         Press         f_avp[1]       f_avp[2]       f_avp[3]       f_avp[4]       f_avp[5]       f_avp[6]
0   1941.0126     -2474.6741      3812.4272      0              0              0              0              0              0
Averages over the last 6 of 11 rows, steps 500 to 1000:
Temp PotEng Press f_avp[1] f_avp[2] f_avp[3] f_avp[4] f_avp[5] f_avp[6]
1959.63 -2468.72 8332.84 10078.2 6105.37 6692.39 -2061.67 9119.25 -250.014
Loop time of 206.256 on 1 procs for 1000 steps with 320 atoms

include potential.mod
# NOTE: This script can be modified for different pair styles
# See in.elastic for more info.

# we must undefine any fix ave/* fix before using reset_timestep
if "$(is_defined(fix,avp))" then "unfix avp"
unfix avp
reset_timestep 0

variable elem string "Co Ni Cr Fe Mn"

#-------------------- Force field --------------------------------------------------------
pair_style      m3gnet /mnt/d/lammps/potentials/M3GNET
#pair_style      m3gnet/d3 /mnt/d/lammps/potentials/M3GNET

pair_coeff      * *  M3GNet-MP-2021.2.8-PES Co Ni Cr Fe Mn

# Setup neighbor style
neighbor 1.0 nsq
neigh_modify once no every 1 delay 0 check yes

# Setup output

fix avp all ave/time  10 10 100 c_thermo_press mode vector
thermo		100
thermo_style custom step temp pe press f_avp[1] f_avp[2] f_avp[3] f_avp[4] f_avp[5] f_avp[6]
thermo_modify norm no

# Setup MD

timestep 0.001
fix 4 all nve
fix 5 all langevin 2000 2000 0.01 123457

run 300
No /omp style for force computation currently active
Step          Temp          PotEng         Press         f_avp[1]       f_avp[2]       f_avp[3]       f_avp[4]       f_avp[5]       f_avp[6]
0   1908.9853     -2466.6973      10386.355      0              0              0              0              0              0
Loop time of 62.2325 on 1 procs for 300 steps with 320 atoms

# Obtain new stress tensor

variable pxx1 equal f_avp[1]
variable pyy1 equal f_avp[2]
variable pzz1 equal f_avp[3]
variable pxy1 equal f_avp[4]
variable pxz1 equal f_avp[5]
variable pyz1 equal f_avp[6]

# Compute elastic constant from pressure tensor

variable C1neg equal 45.0621875288661
variable C2neg equal 10.41891029023
variable C3neg equal 64.928287275524
variable C4neg equal 27.4650564446322
variable C5neg equal 30.3800664116038
variable C6neg equal 9.2016466516286

# Reset box and simulation parameters

clear
package omp 8
box tilt large

The 'box' command has been removed and will be ignored

read_restart restart.equil
Reading restart file ...
  restart file = 2 Aug 2023, LAMMPS = 2 Aug 2023
  restoring atom style atomic from restart
  triclinic box = (-9.11425 -7.2914 -7.2914) to (9.11425 7.2914 7.2914) with tilt (0 0 0)
  pair style m3gnet stores no restart info
  320 atoms
  read_restart CPU = 0.006 seconds
include potential.mod
# NOTE: This script can be modified for different pair styles
# See in.elastic for more info.

# we must undefine any fix ave/* fix before using reset_timestep
if "$(is_defined(fix,avp))" then "unfix avp"
reset_timestep 0

variable elem string "Co Ni Cr Fe Mn"

#-------------------- Force field --------------------------------------------------------
pair_style      m3gnet /mnt/d/lammps/potentials/M3GNET
#pair_style      m3gnet/d3 /mnt/d/lammps/potentials/M3GNET

pair_coeff      * *  M3GNet-MP-2021.2.8-PES Co Ni Cr Fe Mn

# Setup neighbor style
neighbor 1.0 nsq
neigh_modify once no every 1 delay 0 check yes

# Setup output

fix avp all ave/time  10 10 100 c_thermo_press mode vector
thermo		100
thermo_style custom step temp pe press f_avp[1] f_avp[2] f_avp[3] f_avp[4] f_avp[5] f_avp[6]
thermo_modify norm no

# Setup MD

timestep 0.001
fix 4 all nve
fix 5 all langevin 2000 2000 0.01 123457

# Positive deformation

variable delta equal 0.02*14.5828
variable deltaxy equal 0.02*xy
variable deltaxz equal 0.02*xz
variable deltayz equal 0.02*yz
change_box all xz delta 0.291656 remap units box
Changing box ...
  triclinic box = (-9.11425 -7.2914 -7.2914) to (9.11425 7.2914 7.2914) with tilt (0 0.291656 0)

# Run MD

run 1000
No /omp style for force computation currently active
Step          Temp          PotEng         Press         f_avp[1]       f_avp[2]       f_avp[3]       f_avp[4]       f_avp[5]       f_avp[6]
0   1941.0126     -2475.0825      3937.6566      0              0              0              0              0              0
Averages over the last 6 of 11 rows, steps 500 to 1000:
Temp PotEng Press f_avp[1] f_avp[2] f_avp[3] f_avp[4] f_avp[5] f_avp[6]
1962.6 -2469.86 8805.53 9373.28 3841.23 12001 -2456.47 -11679.2 -1243.65
Loop time of 207.143 on 1 procs for 1000 steps with 320 atoms

include potential.mod
# NOTE: This script can be modified for different pair styles
# See in.elastic for more info.

# we must undefine any fix ave/* fix before using reset_timestep
if "$(is_defined(fix,avp))" then "unfix avp"
unfix avp
reset_timestep 0

variable elem string "Co Ni Cr Fe Mn"

#-------------------- Force field --------------------------------------------------------
pair_style      m3gnet /mnt/d/lammps/potentials/M3GNET
#pair_style      m3gnet/d3 /mnt/d/lammps/potentials/M3GNET

pair_coeff      * *  M3GNet-MP-2021.2.8-PES Co Ni Cr Fe Mn

# Setup neighbor style
neighbor 1.0 nsq
neigh_modify once no every 1 delay 0 check yes

# Setup output

fix avp all ave/time  10 10 100 c_thermo_press mode vector
thermo		100
thermo_style custom step temp pe press f_avp[1] f_avp[2] f_avp[3] f_avp[4] f_avp[5] f_avp[6]
thermo_modify norm no

# Setup MD

timestep 0.001
fix 4 all nve
fix 5 all langevin 2000 2000 0.01 123457

run 300
No /omp style for force computation currently active
Step          Temp          PotEng         Press         f_avp[1]       f_avp[2]       f_avp[3]       f_avp[4]       f_avp[5]       f_avp[6]
0   1892.6354     -2468.3608      8593.4513      0              0              0              0              0              0
Loop time of 62.2415 on 1 procs for 300 steps with 320 atoms

# Obtain new stress tensor

variable tmp equal pe
variable e1 equal -2469.56884765625
variable tmp equal press
variable p1 equal 6351.65668446507
variable tmp equal pxx
variable pxx1 equal 4633.33515186445
variable tmp equal pyy
variable pyy1 equal 2964.78402334213
variable tmp equal pzz
variable pzz1 equal 11456.8508781887
variable tmp equal pxy
variable pxy1 equal 2146.97046846933
variable tmp equal pxz
variable pxz1 equal -14244.225394547
variable tmp equal pyz
variable pyz1 equal 3383.66843528642

# Compute elastic constant from pressure tensor

variable C1pos equal -40.2831235666161
variable C2pos equal 5.51700785236825
variable C3pos equal -73.2276865670526
variable C4pos equal -23.0208551688167
variable C5pos equal 75.7715818574838
variable C6pos equal -17.8433962482932

# Combine positive and negative

variable C15 equal 0.5*(45.0621875288661+-40.2831235666161)
variable C25 equal 0.5*(10.41891029023+5.51700785236825)
variable C35 equal 0.5*(64.928287275524+-73.2276865670526)
variable C45 equal 0.5*(27.4650564446322+-23.0208551688167)
variable C55 equal 0.5*(30.3800664116038+75.7715818574838)
variable C65 equal 0.5*(9.2016466516286+-17.8433962482932)

# Delete dir to make sure it is not reused

variable dir delete

# uxy Perturbation

variable dir equal 6
include displace.mod
# NOTE: This script should not need to be
# modified. See in.elastic for more info.
#
# Find which reference length to use

variable len0 equal 14.5828

# Reset box and simulation parameters

clear
package omp 8
box tilt large

The 'box' command has been removed and will be ignored

read_restart restart.equil
Reading restart file ...
  restart file = 2 Aug 2023, LAMMPS = 2 Aug 2023
  restoring atom style atomic from restart
  triclinic box = (-9.11425 -7.2914 -7.2914) to (9.11425 7.2914 7.2914) with tilt (0 0 0)
  pair style m3gnet stores no restart info
  320 atoms
  read_restart CPU = 0.003 seconds
include potential.mod
# NOTE: This script can be modified for different pair styles
# See in.elastic for more info.

# we must undefine any fix ave/* fix before using reset_timestep
if "$(is_defined(fix,avp))" then "unfix avp"
reset_timestep 0

variable elem string "Co Ni Cr Fe Mn"

#-------------------- Force field --------------------------------------------------------
pair_style      m3gnet /mnt/d/lammps/potentials/M3GNET
#pair_style      m3gnet/d3 /mnt/d/lammps/potentials/M3GNET

pair_coeff      * *  M3GNet-MP-2021.2.8-PES Co Ni Cr Fe Mn

# Setup neighbor style
neighbor 1.0 nsq
neigh_modify once no every 1 delay 0 check yes

# Setup output

fix avp all ave/time  10 10 100 c_thermo_press mode vector
thermo		100
thermo_style custom step temp pe press f_avp[1] f_avp[2] f_avp[3] f_avp[4] f_avp[5] f_avp[6]
thermo_modify norm no

# Setup MD

timestep 0.001
fix 4 all nve
fix 5 all langevin 2000 2000 0.01 123457

# Negative deformation

variable delta equal -0.02*14.5828
variable deltaxy equal -0.02*xy
variable deltaxz equal -0.02*xz
variable deltayz equal -0.02*yz
change_box all xy delta -0.291656 remap units box
Changing box ...
  triclinic box = (-9.11425 -7.2914 -7.2914) to (9.11425 7.2914 7.2914) with tilt (-0.291656 0 0)

# Run MD

run 1000
No /omp style for force computation currently active
Step          Temp          PotEng         Press         f_avp[1]       f_avp[2]       f_avp[3]       f_avp[4]       f_avp[5]       f_avp[6]
0   1941.0126     -2474.8367      4108.0519      0              0              0              0              0              0
Averages over the last 6 of 11 rows, steps 500 to 1000:
Temp PotEng Press f_avp[1] f_avp[2] f_avp[3] f_avp[4] f_avp[5] f_avp[6]
1958.07 -2468.38 9312.59 10905.6 5000.55 11352.1 -1143.24 -1703.21 9508.37
Loop time of 208.325 on 1 procs for 1000 steps with 320 atoms

include potential.mod
# NOTE: This script can be modified for different pair styles
# See in.elastic for more info.

# we must undefine any fix ave/* fix before using reset_timestep
if "$(is_defined(fix,avp))" then "unfix avp"
unfix avp
reset_timestep 0

variable elem string "Co Ni Cr Fe Mn"

#-------------------- Force field --------------------------------------------------------
pair_style      m3gnet /mnt/d/lammps/potentials/M3GNET
#pair_style      m3gnet/d3 /mnt/d/lammps/potentials/M3GNET

pair_coeff      * *  M3GNet-MP-2021.2.8-PES Co Ni Cr Fe Mn

# Setup neighbor style
neighbor 1.0 nsq
neigh_modify once no every 1 delay 0 check yes

# Setup output

fix avp all ave/time  10 10 100 c_thermo_press mode vector
thermo		100
thermo_style custom step temp pe press f_avp[1] f_avp[2] f_avp[3] f_avp[4] f_avp[5] f_avp[6]
thermo_modify norm no

# Setup MD

timestep 0.001
fix 4 all nve
fix 5 all langevin 2000 2000 0.01 123457

run 300
No /omp style for force computation currently active
Step          Temp          PotEng         Press         f_avp[1]       f_avp[2]       f_avp[3]       f_avp[4]       f_avp[5]       f_avp[6]
0   1912.4173     -2467.5142      10243.538      0              0              0              0              0              0
Loop time of 61.9552 on 1 procs for 300 steps with 320 atoms

# Obtain new stress tensor

variable pxx1 equal f_avp[1]
variable pyy1 equal f_avp[2]
variable pzz1 equal f_avp[3]
variable pxy1 equal f_avp[4]
variable pxz1 equal f_avp[5]
variable pyz1 equal f_avp[6]

# Compute elastic constant from pressure tensor

variable C1neg equal 86.8290011071123
variable C2neg equal -3.6920738895182
variable C3neg equal 69.5304865262691
variable C4neg equal 34.554452653274
variable C5neg equal -28.0372475573988
variable C6neg equal -7.29246233692525

# Reset box and simulation parameters

clear
package omp 8
box tilt large

The 'box' command has been removed and will be ignored

read_restart restart.equil
Reading restart file ...
  restart file = 2 Aug 2023, LAMMPS = 2 Aug 2023
  restoring atom style atomic from restart
  triclinic box = (-9.11425 -7.2914 -7.2914) to (9.11425 7.2914 7.2914) with tilt (0 0 0)
  pair style m3gnet stores no restart info
  320 atoms
  read_restart CPU = 0.002 seconds
include potential.mod
# NOTE: This script can be modified for different pair styles
# See in.elastic for more info.

# we must undefine any fix ave/* fix before using reset_timestep
if "$(is_defined(fix,avp))" then "unfix avp"
reset_timestep 0

variable elem string "Co Ni Cr Fe Mn"

#-------------------- Force field --------------------------------------------------------
pair_style      m3gnet /mnt/d/lammps/potentials/M3GNET
#pair_style      m3gnet/d3 /mnt/d/lammps/potentials/M3GNET

pair_coeff      * *  M3GNet-MP-2021.2.8-PES Co Ni Cr Fe Mn

# Setup neighbor style
neighbor 1.0 nsq
neigh_modify once no every 1 delay 0 check yes

# Setup output

fix avp all ave/time  10 10 100 c_thermo_press mode vector
thermo		100
thermo_style custom step temp pe press f_avp[1] f_avp[2] f_avp[3] f_avp[4] f_avp[5] f_avp[6]
thermo_modify norm no

# Setup MD

timestep 0.001
fix 4 all nve
fix 5 all langevin 2000 2000 0.01 123457

# Positive deformation

variable delta equal 0.02*14.5828
variable deltaxy equal 0.02*xy
variable deltaxz equal 0.02*xz
variable deltayz equal 0.02*yz
change_box all xy delta 0.291656 remap units box
Changing box ...
  triclinic box = (-9.11425 -7.2914 -7.2914) to (9.11425 7.2914 7.2914) with tilt (0.291656 0 0)

# Run MD

run 1000
No /omp style for force computation currently active
Step          Temp          PotEng         Press         f_avp[1]       f_avp[2]       f_avp[3]       f_avp[4]       f_avp[5]       f_avp[6]
0   1941.0126     -2474.9158      3321.4384      0              0              0              0              0              0
Averages over the last 6 of 11 rows, steps 500 to 1000:
Temp PotEng Press f_avp[1] f_avp[2] f_avp[3] f_avp[4] f_avp[5] f_avp[6]
1960.65 -2469.76 8192.28 8437.29 4821.05 11601.6 -3749.38 -1620.99 -10384.1
Loop time of 206.817 on 1 procs for 1000 steps with 320 atoms

include potential.mod
# NOTE: This script can be modified for different pair styles
# See in.elastic for more info.

# we must undefine any fix ave/* fix before using reset_timestep
if "$(is_defined(fix,avp))" then "unfix avp"
unfix avp
reset_timestep 0

variable elem string "Co Ni Cr Fe Mn"

#-------------------- Force field --------------------------------------------------------
pair_style      m3gnet /mnt/d/lammps/potentials/M3GNET
#pair_style      m3gnet/d3 /mnt/d/lammps/potentials/M3GNET

pair_coeff      * *  M3GNet-MP-2021.2.8-PES Co Ni Cr Fe Mn

# Setup neighbor style
neighbor 1.0 nsq
neigh_modify once no every 1 delay 0 check yes

# Setup output

fix avp all ave/time  10 10 100 c_thermo_press mode vector
thermo		100
thermo_style custom step temp pe press f_avp[1] f_avp[2] f_avp[3] f_avp[4] f_avp[5] f_avp[6]
thermo_modify norm no

# Setup MD

timestep 0.001
fix 4 all nve
fix 5 all langevin 2000 2000 0.01 123457

run 300
No /omp style for force computation currently active
Step          Temp          PotEng         Press         f_avp[1]       f_avp[2]       f_avp[3]       f_avp[4]       f_avp[5]       f_avp[6]
0   1864.6793     -2468.2437      9466.0561      0              0              0              0              0              0
Loop time of 61.6802 on 1 procs for 300 steps with 320 atoms

# Obtain new stress tensor

variable tmp equal pe
variable e1 equal -2471.326171875
variable tmp equal press
variable p1 equal 2796.4800765352
variable tmp equal pxx
variable pxx1 equal 11040.0641842665
variable tmp equal pyy
variable pyy1 equal -2246.59184919913
variable tmp equal pzz
variable pzz1 equal -404.03210546176
variable tmp equal pxy
variable pxy1 equal -9798.75357393652
variable tmp equal pxz
variable pxz1 equal -6108.02685777906
variable tmp equal pyz
variable pyz1 equal -13087.2621056422

# Compute elastic constant from pressure tensor

variable C1pos equal -72.3167687286264
variable C2pos equal 31.5738872150745
variable C3pos equal -13.9232716488003
variable C4pos equal 59.3337975358264
variable C5pos equal 35.0905891736441
variable C6pos equal 41.8852239637361

# Combine positive and negative

variable C16 equal 0.5*(86.8290011071123+-72.3167687286264)
variable C26 equal 0.5*(-3.6920738895182+31.5738872150745)
variable C36 equal 0.5*(69.5304865262691+-13.9232716488003)
variable C46 equal 0.5*(34.554452653274+59.3337975358264)
variable C56 equal 0.5*(-28.0372475573988+35.0905891736441)
variable C66 equal 0.5*(-7.29246233692525+41.8852239637361)

# Delete dir to make sure it is not reused

variable dir delete

# Output final values

variable C11all equal 82.7499730918366
variable C22all equal 134.710464243902
variable C33all equal 147.162580441283

variable C12all equal 0.5*(114.097505635122+158.951397660002)
variable C13all equal 0.5*(146.004270551538+120.532430516089)
variable C23all equal 0.5*(130.821203433428+141.562465809381)

variable C44all equal -11.027901814012
variable C55all equal 53.0758241345438
variable C66all equal 17.2963808134054

variable C14all equal 0.5*(1.94642829016805+6.43344304331879)
variable C15all equal 0.5*(2.389531981125+29.1176700060111)
variable C16all equal 0.5*(7.25611618924295+-9.67927011955075)

variable C24all equal 0.5*(56.746461753886+6.40118676207085)
variable C25all equal 0.5*(7.96795907129913+4.05887089462782)
variable C26all equal 0.5*(13.9409066627782+8.47219981014822)

variable C34all equal 0.5*(0.931179738546+8.3465078534581)
variable C35all equal 0.5*(-4.1496996457643+-8.10241476184413)
variable C36all equal 0.5*(27.8036074387344+23.0064330544189)

variable C45all equal 0.5*(2.22210063790775+13.8108216742829)
variable C46all equal 0.5*(46.9441250945502+41.5293159787904)
variable C56all equal 0.5*(3.52667080812265+-4.3208747983323)

# Average moduli for cubic crystals

variable C11cubic equal (82.7499730918366+134.710464243902+147.162580441283)/3.0
variable C12cubic equal (136.524451647562+133.268350533814+136.191834621404)/3.0
variable C44cubic equal (-11.027901814012+53.0758241345438+17.2963808134054)/3.0

variable bulkmodulus equal (121.541005925674+2*135.328212267593)/3.0
variable shearmodulus1 equal 19.7814343779791
variable shearmodulus2 equal (121.541005925674-135.328212267593)/2.0
variable poissonratio equal 1.0/(1.0+121.541005925674/135.328212267593)

# For Stillinger-Weber silicon, the analytical results
# are known to be (E. R. Cowley, 1988):
#               C11 = 151.4 GPa
#               C12 = 76.4 GPa
#               C44 = 56.4 GPa

print "========================================="
=========================================
print "Components of the Elastic Constant Tensor"
Components of the Elastic Constant Tensor
print "========================================="
=========================================

Elastic Constant C11all = 82.7499730918366 GPa
Elastic Constant C22all = 134.710464243902 GPa
Elastic Constant C33all = 147.162580441283 GPa

Elastic Constant C12all = 136.524451647562 GPa
Elastic Constant C13all = 133.268350533814 GPa
Elastic Constant C23all = 136.191834621404 GPa

Elastic Constant C44all = -11.027901814012 GPa
Elastic Constant C55all = 53.0758241345438 GPa
Elastic Constant C66all = 17.2963808134054 GPa

Elastic Constant C14all = 4.18993566674342 GPa
Elastic Constant C15all = 15.753600993568 GPa
Elastic Constant C16all = -1.2115769651539 GPa

Elastic Constant C24all = 31.5738242579784 GPa
Elastic Constant C25all = 6.01341498296348 GPa
Elastic Constant C26all = 11.2065532364632 GPa

Elastic Constant C34all = 4.63884379600205 GPa
Elastic Constant C35all = -6.12605720380422 GPa
Elastic Constant C36all = 25.4050202465766 GPa

Elastic Constant C45all = 8.01646115609532 GPa
Elastic Constant C46all = 44.2367205366703 GPa
Elastic Constant C56all = -0.397101995104825 GPa

print "========================================="
=========================================
print "Average properties for a cubic crystal"
Average properties for a cubic crystal
print "========================================="
=========================================

Bulk Modulus = 130.732476820287 GPa
Shear Modulus 1 = 19.7814343779791 GPa
Shear Modulus 2 = -6.89360317095949 GPa
Poisson Ratio = 0.526837015425386
