LAMMPS (2 Aug 2023)
package omp 8
# LAMMPS Input File for Grain Boundaries
#-------------------- Initialization -----------------------------------------------------
clear
package omp 8
echo            both    # echoes each input script command to both log file and screen
#-----------------------------------------------------------------------------------------
units           metal   # determines units of all quantities used in the input file
atom_style      atomic
boundary        p p p   # periodic boundary condition

#-----------------------------------------------------------------------------------------
variable Tini equal 273+25   # [K] (Initial temperature)
variable Tfin equal 273+25   # [K] (Annealing temperature)

variable Pini index    1.0   # [bar] (Note 1.0 bar = 0.1 MPa)

variable Nout equal    100   # every 100 time steps to the specified file

#-------------------- Atom & Lattice description ----------------------------------------
lattice fcc 3.5101
Lattice spacing in x,y,z = 3.5101 3.5101 3.5101

variable xh index 12
variable yh index 12
variable zh index 6

region whole block 0 12 -12 12 0 6 units box
create_box 2 whole
Created orthogonal box = (0 -12 0) to (12 12 6)

region upper block 0 12  0 12 0 6 units box
lattice fcc 3.5101 orient x 2 1 0 orient y 1 -2 0 orient z 0 0 -1
Lattice spacing in x,y,z = 4.7092933 4.7092933 3.5101
create_atoms 1 region upper
Created 104 atoms

region lower block 0 12 -12 0 0 6 units box
lattice fcc 3.5101 orient x 1 2 0 orient y 2 -1 0 orient z 0 0 -1
Lattice spacing in x,y,z = 4.7092933 4.7092933 3.5101
create_atoms 2 region lower
Created 104 atoms

group upper type 1 # Fe in upper
104 atoms in group upper
group lower type 2 # Fe in lower
104 atoms in group lower

variable elem string "Fe Co"

mass 1 55.85 # Fe
mass 2 58.93 # Co

#-------------------- Force field --------------------------------------------------------
pair_style      m3gnet /mnt/d/lammps/potentials/M3GNET
#pair_style      m3gnet/d3 /mnt/d/lammps/potentials/M3GNET

pair_coeff      * *  M3GNet-MP-2021.2.8-PES Fe Co

#-------------------- Settings -----------------------------------------------------------
neighbor 2.0 bin
neigh_modify delay 10 check yes

timestep 0.0001  # 0.1 [fs] (Recommend 0.1-1.0 [fs]), sets the timestep for subsequent simulations

# ------------------- Displace atoms and delete overlapping atoms ------------------------
displace_atoms upper move 0 0 0 units lattice
Displacing atoms ...
delete_atoms overlap 0.35 lower upper
System init for delete_atoms ...
No /omp style for force computation currently active
Deleted 8 atoms, new total = 200

#-------------------- Energy Minimization ------------------------------------------------
# 0 [K], structure optimization
thermo 100
thermo_style custom step temp pe etotal press vol fmax fnorm

fix             emin all box/relax aniso 1.0
min_style       cg
min_modify      dmax 0.2
min_modify      line quadratic
minimize        0.0 1.0e-8 10000 100000 # This condition is necessary to make the residual stress sufficiently small.
No /omp style for force computation currently active
 (../min.cpp:225)
Step          Temp          PotEng         TotEng         Press          Volume          Fmax          Fnorm
0   0              2184.4121      2184.4121      3197415        1728           1160.3329      4599.9467
Averages over the last 51 of 101 rows, steps 5000 to 10000:
Temp PotEng TotEng Press Volume Fmax Fnorm
0 -919.848 -919.848 105291 4023.38 100.359 458.494
Loop time of 1224.33 on 1 procs for 10000 steps with 200 atoms

Minimization stats:
  Stopping criterion = max iterations
  Energy initial, next-to-last, final =
  Force two-norm initial, final = 8068.7597 236.21591
  Force max component initial, final = 5658.1396 153.16978
  Final line search alpha, max atom move = 6.5288601e-07 0.00010000241
  Iterations, force evaluations = 10000 10000

unfix           emin

#-------------------- Settings -----------------------------------------------------------
reset_timestep 0

compute csym all centro/atom fcc

# Store final cell length for strain calculations
variable tmp equal "ly"
variable L0 equal 48.0000000000151
Initial Length, L0: 48.0000000000151

# Output strain and stress info to file
# for units metal, pressure is in [bars] = 100 [kPa] = 1/10000 [GPa]
# p2, p3, p4 are in GPa
variable strain equal "(ly - v_L0)/v_L0"
variable p1 equal "v_strain"
variable p2 equal "-pxx/10000"
variable p3 equal "-pyy/10000"
variable p4 equal "-pzz/10000"
fix def1 all ave/time 1 10 100 v_p1 v_p2 v_p3 v_p4 ave one file tensile.txt

thermo 100
thermo_style custom step temp etotal lx lz ly pyy v_strain v_p3

#---------- output file settings -------------------------
dump            d1 all cfg 100 cfg/run.*.cfg mass type xs ys zs c_csym id type vx vy vz fx fy fz
dump_modify     d1 element Fe Co
#---------------------------------------------------------

velocity all create 298 12345 mom yes rot no

#-------------------- Run the simulation -------------------------------------------------
variable  srate equal 1.0e9
variable srate1 equal "v_srate/1.0e12"

fix f1 all nvt temp 298 298 $(20*dt)
fix f1 all nvt temp 298 298 0.0020000000000000000416
fix f2 all deform 1 y erate 0.001 units box remap v

run             20000 # 2 ps
No /omp style for force computation currently active
Step          Temp          TotEng           Lx             Lz             Ly            Pyy          v_strain         v_p3
0   298           -1128.7902      8.9961015      9.3691554      48             123276.43      4.4408921e-16 -12.327643
Averages over the last 101 of 201 rows, steps 10000 to 20000:
Temp TotEng Lx Lz Ly Pyy v_strain v_p3
299.339 -1432.3 8.9961 9.36916 48.072 -49627.2 0.0015 4.96272
Loop time of 2042.17 on 1 procs for 20000 steps with 200 atoms

print "All done"
All done

# Note
print "The rapid change in stress above a certain strain is due to the introduction of large deformations such as dislocations into the system."
The rapid change in stress above a certain strain is due to the introduction of large deformations such as dislocations into the system.
#-------------------- End ----------------------------------------------------------------
