LAMMPS (2 Aug 2023)
package omp 8
# sample surface deposition script for molecules
#-------------------- Initialization -----------------------------------------------------
clear
package omp 8
echo            both    # echoes each input script command to both log file and screen
#-----------------------------------------------------------------------------------------
units           metal   # determines units of all quantities used in the input file
atom_style      full
boundary        p p p   # original is "boundary p p f"
#-----------------------------------------------------------------------------------------
variable   Tini  equal 273+1200 # [K] (Initial temperature)
variable   Tfin  equal 273+1200 # [K] (Annealing temperature)

variable Nsteps  equal   20000 # The number of calculations
variable Nout    equal    1000 # every 1000 time steps to the specified file

#-------------------- Atom & Lattice description ----------------------------------------
lattice         fcc 3.818
Lattice spacing in x,y,z = 3.818 3.818 3.818
region          box block 0 5 0 5 0 20
create_box      3 box # <= 3 types for "elem"
Created orthogonal box = (0 0 0) to (19.09 19.09 76.36)

region          substrate block INF INF INF INF INF 3
create_atoms    1 region substrate
Created 350 atoms

mass 1 101.07 # Ru
mass 2 12.01  # C
mass 3 12.01  # C
#mass 3 14.01  # N

variable elem string "Ru C C"
#variable elem string "Ru C N"

#-------------------- Force field --------------------------------------------------------
# CPU case
#pair_style hybrid/overlay chgnet /mnt/d/lammps/potentials/CHGNET momb 12.0 0.75 20.0

# GPU case
pair_style hybrid/overlay chgnet/gpu /mnt/d/lammps/potentials/CHGNET momb 12.0 0.75 20.0
pair_coeff    * *  chgnet/gpu 0.3.0 Ru C C

# atom type 1, A <- Ru
variable C6_1 equal 24.67 # Jnm6mol-1
variable R0_1 equal 1.639 # Angstrom

# atom type 2, B <- C
variable C6_2 equal 1.75  # Jnm6mol-1
variable R0_2 equal 1.452 # Angstrom

# atom type 3, C <- C
variable C6_3 equal 1.75  # Jnm6mol-1
variable R0_3 equal 1.452 # Angstrom

# atom type 3, N
#variable C6_3 equal 1.23  # Jnm6mol-1
#variable R0_3 equal 1.397 # Angstrom

# convert [Jnm6mol-1] to [eVA6], (sqrt() or ()^0.5)
#----------------------------------------------------------------------------------
pair_coeff 1 1 momb 0.0 1.0 1.0 $(sqrt(v_C6_1 * v_C6_1)*10.364) $(v_R0_1 + v_R0_1) # A-A
pair_coeff 1 1 momb 0.0 1.0 1.0 255.67988000000002557 $(v_R0_1 + v_R0_1)
pair_coeff 1 1 momb 0.0 1.0 1.0 255.67988000000002557 3.2780000000000000249
pair_coeff 1 2 momb 0.0 1.0 1.0 $(sqrt(v_C6_1 * v_C6_2)*10.364) $(v_R0_1 + v_R0_2) # A-B
pair_coeff 1 2 momb 0.0 1.0 1.0 68.097474134948654978 $(v_R0_1 + v_R0_2)
pair_coeff 1 2 momb 0.0 1.0 1.0 68.097474134948654978 3.0910000000000001918
pair_coeff 1 3 momb 0.0 1.0 1.0 $(sqrt(v_C6_1 * v_C6_3)*10.364) $(v_R0_1 + v_R0_3) # B-C
pair_coeff 1 3 momb 0.0 1.0 1.0 68.097474134948654978 $(v_R0_1 + v_R0_3)
pair_coeff 1 3 momb 0.0 1.0 1.0 68.097474134948654978 3.0910000000000001918
#----------------------------------------------------------------------------------
pair_coeff 2 2 momb 0.0 1.0 1.0 $(sqrt(v_C6_2 * v_C6_2)*10.364) $(v_R0_2 + v_R0_2) # B-B
pair_coeff 2 2 momb 0.0 1.0 1.0 18.137000000000000455 $(v_R0_2 + v_R0_2)
pair_coeff 2 2 momb 0.0 1.0 1.0 18.137000000000000455 2.9039999999999999147
pair_coeff 2 3 momb 0.0 1.0 1.0 $(sqrt(v_C6_2 * v_C6_3)*10.364) $(v_R0_2 + v_R0_3) # B-C
pair_coeff 2 3 momb 0.0 1.0 1.0 18.137000000000000455 $(v_R0_2 + v_R0_3)
pair_coeff 2 3 momb 0.0 1.0 1.0 18.137000000000000455 2.9039999999999999147
#----------------------------------------------------------------------------------
pair_coeff 3 3 momb 0.0 1.0 1.0 $(sqrt(v_C6_3 * v_C6_3)*10.364) $(v_R0_3 + v_R0_3) # C-C
pair_coeff 3 3 momb 0.0 1.0 1.0 18.137000000000000455 $(v_R0_3 + v_R0_3)
pair_coeff 3 3 momb 0.0 1.0 1.0 18.137000000000000455 2.9039999999999999147
#----------------------------------------------------------------------------------

#-------------------- Settings -----------------------------------------------------------
neigh_modify  delay 0

group    addatoms type 2 3 # <= Types (2nd row) in molecule.txt
0 atoms in group addatoms
region   mobile block 0 5 0 5 2 INF
group    mobile region mobile
150 atoms in group mobile

molecule        molecule molecule.txt
Read molecule template molecule:
  1 molecules
  0 fragments
  2 atoms with max type 3
  0 bonds with max type 0
  0 angles with max type 0
  0 dihedrals with max type 0
  0 impropers with max type 0
region          slab block 0 5 0 5 13 14

timestep 0.001 # 1.0 [fs] (Recommend 0.1-1.0 [fs]), sets the timestep for subsequent simulations

compute  add addatoms temp
compute_modify add dynamic/dof yes extra/dof 0

thermo          1000
thermo_style    custom step atoms temp epair etotal press
thermo_modify   temp add lost/bond ignore lost warn

dump            d1 all cfg 1000 cfg/run.*.cfg mass type xs ys zs id type vx vy vz fx fy fz
dump_modify     d1 element Ru C C

#-------------------- Run the simulation -------------------------------------------------
# non-equilibrium system, calculation settings
fix f1 addatoms nve
fix f2 mobile langevin 1473 1473 $(100*dt) 1234567
fix f2 mobile langevin 1473 1473 0.10000000000000000555 1234567
fix f3 mobile nve

fix  f4 addatoms deposit 200 0 100 12345 region slab near 1.0                 mol molecule vz -4.0 -4.0
# Note: substrate 350 + molecule 700 = 1050 atoms: 21.4 GB

#fix  f5 addatoms wall/reflect zhi EDGE # <= boundary p p f

run 20000

CITE-CITE-CITE-CITE-CITE-CITE-CITE-CITE-CITE-CITE-CITE-CITE-CITE

Your simulation uses code contributions which should be cited:

- Pair style momb: doi:10.1021/jp412098n

@Article{pair_momb_2015,
title = {A Force Field for Describing the Polyvinylpyrrolidone-Mediated
    Solution-Phase Synthesis of Shape-Selective {Ag} Nanoparticles},
volume = {118},
number = {6},
url = {https://doi.org/10.1021/jp412098n},
doi = {10.1021/jp412098n},
journal = {J.~Phys.\ Chem.~C},
author = {Zhou, Ya and Wissam A. Saidi and Kristen A. Fichthorn},
year = {2014},
pages = {3366--3374}
}

CITE-CITE-CITE-CITE-CITE-CITE-CITE-CITE-CITE-CITE-CITE-CITE-CITE

No /omp style for force computation currently active
Step        Atoms         Temp          E_pair         TotEng         Press
0         350   0             -3290.632      -3290.632      -23351.421
Averages over the last 11 of 21 rows, steps 10000 to 20000:
Atoms Temp E_pair TotEng Press
650 2472.47 -5656.27 -5560.09 -9714.65
Loop time of 7526.08 on 1 procs for 20000 steps with 750 atoms

#-------------------- End ----------------------------------------------------------------
