LAMMPS (2 Aug 2023)
package omp 8
#-----------------------------------------------------------------------------------------
# 4.2 Creation of Al-Si-Mg-Cu-Fe alloys
#  Test: LAMMPS 64-bit 22Dec2022-MSMPI version
#-----------------------------------------------------------------------------------------
clear
package omp 8
echo both
#-------------------- Environment Settings -----------------------------------------------
variable  Tdesird equal  273+170.0 # Desired Temperature [K]

variable  dt_ps   equal   0.003 # 3.0 [fs] (Recommend 0.1-3.5 [fs]), sets the timestep for subsequent simulations

variable Nsteps   equal    2000 # The number of calculations (e.g., 1000 - 100000)
variable Nout     equal     100 # output (e.g., 10 - 1000)

variable rseed    equal   12345 # random seed (Note: If you want different results, use different values.)

#-------------------- Initialization -----------------------------------------------------
units metal
dimension 3
boundary p p p

#-------------------- Atom & Lattice description ----------------------------------------
atom_style atomic

read_data data_after_step2.lammps
Reading data file ...
  orthogonal box = (-1.9600738 -1.9600738 -0.11760443) to (101.96007 101.96007 6.1176044)
  reading atoms ...
  3750 atoms
  reading velocities ...
  3750 velocities

variable elem string "Al Si Mg Cu Fe"

#-------------------- Force field --------------------------------------------------------
pair_style      m3gnet /mnt/d/lammps/potentials/M3GNET
#pair_style      m3gnet/d3 /mnt/d/lammps/potentials/M3GNET

pair_coeff      * *  M3GNet-MP-2021.2.8-PES Al Si Mg Cu Fe

#-----------------------------------------------------------------------------------------

#-------------------- Settings -----------------------------------------------------------
timestep 0.003

thermo 100
thermo_style custom step temp vol press etotal   # specifies content of thermodynamic data to be printed in screen

velocity all create 443 12345 mom yes rot no

#---------- output file settings --------------------------------------
dump            d1 all cfg 100 cfg/run.mc.*.cfg mass type xs ys zs id type vx vy vz fx fy fz
dump_modify     d1 element Al Si Mg Cu Fe
#----------------------------------------------------------------------

#-------------------- Run the simulation -------------------------------------------------

# ----- Radial Distribution Function -----
#comm_modify     cutoff 14
compute         distribution all rdf 240
fix             f1 all ave/time 1 100 100 c_distribution[*] file AlSiMgCuFe_RDF.txt mode vector

# ----- Mean Square Displacement -----
group           Al type 1
3740 atoms in group Al
compute         Almsd Al msd
fix             f2 all ave/time 1 100 100 c_Almsd[*] file out_Al_msd.txt
# -----
group           Si type 2
5 atoms in group Si
compute         Simsd Si msd
fix             f3 all ave/time 1 100 100 c_Simsd[*] file out_Si_msd.txt
# -----
group           Mg type 3
1 atoms in group Mg
compute         Mgmsd Mg msd
fix             f4 all ave/time 1 100 100 c_Mgmsd[*] file out_Mg_msd.txt
# -----
group           Cu type 4
1 atoms in group Cu
compute         Cumsd Cu msd
fix             f5 all ave/time 1 100 100 c_Cumsd[*] file out_Cu_msd.txt
# -----
group           Fe type 5
3 atoms in group Fe
compute         Femsd Fe msd
fix             f6 all ave/time 1 100 100 c_Femsd[*] file out_Fe_msd.txt
# -----
compute         allmsd all msd
fix             f7 all ave/time 1 100 100 c_allmsd[*] file out_all_msd.txt

fix f8 all npt temp 443 443 $(100*dt) iso 1.0 1.0 $(1000*dt)
fix f8 all npt temp 443 443 0.2999999999999999889 iso 1.0 1.0 $(1000*dt)
fix f8 all npt temp 443 443 0.2999999999999999889 iso 1.0 1.0 3

run 2000
No /omp style for force computation currently active
Step          Temp          Volume         Press          TotEng
0   443            67336.496     -177.26333     -13395.166
Averages over the last 11 of 21 rows, steps 1000 to 2000:
Temp Volume Press TotEng
442.325 67272.1 282.723 -13397
Loop time of 3250.57 on 1 procs for 2000 steps with 3750 atoms

write_data data_after_step3.lammps
System init for write_data ...
No /omp style for force computation currently active

#-------------------- End ----------------------------------------------------------------
