LAMMPS (2 Aug 2023)
package omp 8
#-----------------------------------------------------------------------------------------
# 4.2 Creation of Al-Si-Mg-Cu-Fe alloys
#  Test: LAMMPS 64-bit 22Dec2022-MSMPI version
#-----------------------------------------------------------------------------------------
clear
package omp 8
echo both
#-------------------- Environment Settings -----------------------------------------------
variable  Tdesird equal  273+170.0 # Desired Temperature [K]

variable  Pdesird equal        1.0 # Desired Pressure [bar] (1 bar = 0.1 MPa = 100 kPa)

variable  dt_ps   equal   0.003 # 3.0 [fs] (Recommend 0.1-3.5 [fs]), sets the timestep for subsequent simulations

variable Nsteps   equal    1000 # The number of calculations (e.g., 1000 - 100000)
variable Nout     equal     100 # output (e.g., 10 - 1000)

variable rseed    equal   12345 # random seed (Note: If you want different results, use different values.)

#-------------------- Initialization -----------------------------------------------------
units metal
dimension 3
boundary p p p

#-------------------- Atom & Lattice description ----------------------------------------
atom_style atomic

read_data data_after_step1.lammps
Reading data file ...
  orthogonal box = (0 0 0) to (100 100 6)
  reading atoms ...
  3750 atoms
  reading velocities ...
  3750 velocities

variable elem string "Al Si Mg Cu Fe"

#-------------------- Force field --------------------------------------------------------
pair_style      m3gnet /mnt/d/lammps/potentials/M3GNET
#pair_style      m3gnet/d3 /mnt/d/lammps/potentials/M3GNET

pair_coeff      * *  M3GNet-MP-2021.2.8-PES Al Si Mg Cu Fe

#-------------------- Settings -----------------------------------------------------------
timestep 0.003

thermo 100
thermo_style custom step temp vol press etotal   # specifies content of thermodynamic data to be printed in screen

velocity all create 443 12345 mom yes rot no

#---------- output file settings --------------------------------------
dump            d1 all cfg 100 cfg/run.md.*.cfg mass type xs ys zs id type vx vy vz fx fy fz
dump_modify     d1 element Al Si Mg Cu Fe
#----------------------------------------------------------------------

#-------------------- Run the simulation -------------------------------------------------
fix f1 all npt temp 443 443 0.2999999999999999889 iso 1.0 1 $(1000*dt)
fix f1 all npt temp 443 443 0.2999999999999999889 iso 1.0 1 3

run 1000
No /omp style for force computation currently active
Step          Temp          Volume         Press          TotEng
0   443            60000          82515.854     -13359.888
Averages over the last 6 of 11 rows, steps 500 to 1000:
Temp Volume Press TotEng
443.089 67357.7 -71.3944 -13392.7
Loop time of 1598.49 on 1 procs for 1000 steps with 3750 atoms

write_data data_after_step2.lammps
System init for write_data ...
No /omp style for force computation currently active

#-------------------- End ----------------------------------------------------------------
