LAMMPS (2 Aug 2023)
package omp 8
#-------------------- Initialization -----------------------------------------------------
clear
package omp 8
echo            both    # echoes each input script command to both log file and screen
#-----------------------------------------------------------------------------------------
units           metal   # determines units of all quantities used in the input file
atom_style      full
boundary        p p p   # periodic boundary condition
#-----------------------------------------------------------------------------------------
variable Tini equal 273+30   # [K] (Initial temperature)
variable Tfin equal 273+30   # [K] (Annealing temperature)

variable Pfin index   13.0   # [bar] (Note 1.0 bar = 0.1 MPa)

variable Nout equal    100   # every 100 time steps to the specified file

variable   natom index 5
variable   nmove index 5
variable   mu    index -5.46 # Fermi Energy (eV) from MOPAC2016 PM7
variable   disp  index 0.01

variable   tfac  equal 5.0/3.0 # (3 trans + 2 rot)/(3 trans) for molecular (2 atoms)
# trans = 3, rot = 2 (line), rot = 3 (non-line), vib = 3n-5 (line), vib = 3n-6 (non-line)
# total = 3n = 3+2+3n-5 = 3+3+3n-6
# vib = about 0.0 at R.T. for molecular (2 atoms)

#-------------------- Atom & Lattice description ----------------------------------------
read_data       data.lammps
Reading data file ...
  orthogonal box = (0 0 0) to (24.07 24.07 24.07)
  reading atoms ...
  360 atoms
  scanning bonds ...
  scanning angles ...
  scanning dihedrals ...
  reading bonds ...
  432 bonds
  reading angles ...
  741 angles
  reading dihedrals ...
  1272 dihedrals
Finding 1-2 1-3 1-4 neighbors ...
     3 = max # of 1-2 neighbors
     6 = max # of 1-3 neighbors
    18 = max # of 1-4 neighbors
    18 = max # of special neighbors

replicate 1 1 1
Replication is creating a 1x1x1 = 1 times larger system...
  orthogonal box = (0 0 0) to (24.07 24.07 24.07)
  360 atoms
  432 bonds
  741 angles
  1272 dihedrals
Finding 1-2 1-3 1-4 neighbors ...
     3 = max # of 1-2 neighbors
     6 = max # of 1-3 neighbors
    18 = max # of 1-4 neighbors
    18 = max # of special neighbors
  replicate CPU = 0.001 seconds

#mass 1 12.0107  # C
#mass 2 1.00794  # H
#mass 3 1.00794  # H

molecule        my_one_gas ./molecular_files/H2.txt
Read molecule template my_one_gas:
  1 molecules
  0 fragments
  2 atoms with max type 3
  1 bonds with max type 3
  0 angles with max type 0
  0 dihedrals with max type 0
  0 impropers with max type 0
group           gas type 3
0 atoms in group gas
variable        atoms_of_gas equal 2 # The number of atoms per gas molecule

variable elem string "C H H2" # specifies the potential file used

# set overlap_cutoff
variable overlap_cutoff_value equal 1.0

#-------------------- Force field --------------------------------------------------------

#-------------------------------------------------------------------------
# case 1, Lennard-Jones (LJ) potential + charge (in this case, 0 charges)
#pair_style hybrid airebo 3.0 1 0 lj/cut/coul/long 14
#pair_coeff * * airebo CH.airebo C H NULL

# H2 case
#pair_coeff 1 3 lj/cut/coul/long 0.002947 3.000 # C-H (H2)
#pair_coeff 2 3 lj/cut/coul/long 0.001908 2.570 # H-H (H2)
#pair_coeff 3 3 lj/cut/coul/long 0.001908 2.570 # H-H (H2)

#kspace_style    ewald 1.0e-5
#-------------------------------------------------------------------------

#-------------------------------------------------------------------------
# case 2, Feynman-Hibbs effective (FHE) potential + charge (in this case, 0 charges)
pair_style hybrid/overlay airebo 3.0 1 0 table linear 1000 ewald coul/cut 14
pair_coeff * * airebo ./potentials/CH.airebo C H NULL
Reading airebo potential file ./potentials/CH.airebo with DATE: 2011-10-25

# H2 case
pair_coeff 1 3 table  ./potentials/fhe_C-H_303K.txt ENTRY # C-H (H2)
Reading pair table potential file ./potentials/fhe_C-H_303K.txt with DATE: 2024-07-07
pair_coeff 2 3 table  ./potentials/fhe_H-H_303K.txt ENTRY # H-H (H2)
Reading pair table potential file ./potentials/fhe_H-H_303K.txt with DATE: 2024-07-07
pair_coeff 3 3 table  ./potentials/fhe_H-H_303K.txt ENTRY # H-H (H2)
Reading pair table potential file ./potentials/fhe_H-H_303K.txt with DATE: 2024-07-07

pair_coeff * 3 coul/cut
#-------------------------------------------------------------------------

#-------------------------------------------------------------------------
# Common settings (for case 1 or case 2)

bond_style      morse # bond for N2 molecules
bond_coeff      1       0       1.0       1.0    # dummy
bond_coeff      2       0       1.0       1.0    # dummy
bond_coeff      3   4.750162    1.93      0.741  # H2

delete_bonds all bond  1*2 remove
System init for delete_bonds ...
Hybrid pair style last /omp style coul/cut
Last active /omp style is bond_style morse/omp
Deleting bonds ...
  0 total bonds, 0 turned on, 0 turned off
  741 total angles, 741 turned on, 0 turned off
  1272 total dihedrals, 1272 turned on, 0 turned off
  0 total impropers, 0 turned on, 0 turned off
delete_bonds all angle 1*2 remove
System init for delete_bonds ...
Hybrid pair style last /omp style coul/cut
Last active /omp style is bond_style morse/omp
Deleting bonds ...
  0 total bonds, 0 turned on, 0 turned off
  0 total angles, 0 turned on, 0 turned off
  1272 total dihedrals, 1272 turned on, 0 turned off
  0 total impropers, 0 turned on, 0 turned off
delete_bonds all dihedral 1*3 remove
System init for delete_bonds ...
Hybrid pair style last /omp style coul/cut
Last active /omp style is bond_style morse/omp
Deleting bonds ...
  0 total bonds, 0 turned on, 0 turned off
  0 total angles, 0 turned on, 0 turned off
  0 total dihedrals, 0 turned on, 0 turned off
  0 total impropers, 0 turned on, 0 turned off
#-------------------------------------------------------------------------

#-------------------------------------------------------------------------
# QEq method (Not recommend in this condition)
#fix fq all qeq/slater 5 10 1.0e-6 100 qfile # alpha 0.2
#fix fq all qeq/point 1 10 1.0e-6 200 qfile
#fix fq all qeq/dynamic 1 12 1.0e-3 100 qfile
#-------------------------------------------------------------------------

#-------------------- Energy Minimization (failed) ---------------------------------------
# Note: ERROR: Fix gcmc region extends outside simulation box (../fix_gcmc.cpp:486)
# 0 [K], structure optimization
#fix             emin all box/relax x 0.0 y 0.0 z 0.0
#fix             emin all box/relax aniso 0.0
#min_style       cg
#min_modify      dmax 0.2
#min_modify      line quadratic
#minimize        1.0e-4 1.0e-6 100 1000
#unfix           emin

#-------------------- Settings -----------------------------------------------------------
reset_timestep 0

timestep 0.0005  # 0.5 [fs] (Recommend 0.1-1.0 [fs]), sets the timestep for subsequent simulations

variable        ngas equal count(gas)/2

variable        wtp  equal mass(gas)/mass(all)*100 # Mass Percent Concentration, wt.% [dimensionless] (Absolute, Not excess)

#variable        molc equal (v_ngas/6.022e23)/(vol*1e-30) # molar concentration [mol/m^3] (Absolute, Not excess)
variable        molL equal (v_ngas/6.022e23)/(vol*1e-27) # molar concentration [mol/L] = [mol/dm^3] (Absolute, Not excess)

variable        mc   equal (mass(gas)/6.022e23/1000)/(vol*1e-30) # Mass Concentration [kg/m^3] (Absolute, Not excess)

thermo 100
thermo_style custom step temp vol press etotal v_ngas v_wtp v_molL v_mc # specifies content of thermodynamic data to be printed in screen

#---------- output file settings --------------------------------------
dump            d1 all cfg 100 cfg/run.*.cfg mass type xs ys zs id type vx vy vz fx fy fz
dump_modify     d1 element C H H2
#dump_modify     d1 sort id
#----------------------------------------------------------------------

velocity all create 303 12345 mom yes rot no

#-------------------- Run the simulation -------------------------------------------------
compute mdtemp all temp
compute_modify mdtemp dynamic/dof yes

## Equilibrium system, calculation settings
fix f1 all npt temp 303 303 0.010000000000000000208 iso 0.0 13.0 $(200*dt)
fix f1 all npt temp 303 303 0.010000000000000000208 iso 0.0 13.0 0.10000000000000000555
fix_modify f1 temp mdtemp

# non-equilibrium system, calculation settings
#fix f1 all nve
#fix_modify f2 temp mdtemp

# GCMC
fix f3 gas gcmc 100 5 5 0 12345 303 -5.46 0.01 mol my_one_gas pressure 13.0 tfac_insert 1.66666666666667 full_energy overlap_cutoff 1

run             20000 # 10 ps
Hybrid pair style last /omp style coul/cut
Last active /omp style is bond_style morse/omp
0 atoms in group FixGCMC:gcmc_exclusion_group:f3
0 atoms in group FixGCMC:rotation_gas_atoms:f3
Step          Temp          Volume         Press          TotEng         v_ngas         v_wtp          v_molL          v_mc
0   303            13945.313     -4664.7643     -2288.3745      0              0              0              0
Averages over the last 101 of 201 rows, steps 10000 to 20000:
Temp Volume Press TotEng v_ngas v_wtp v_molL v_mc
316.435 9850.63 -12.2678 -2292.92 7.56436 0.429772 1.27323 2.56667
Loop time of 119.622 on 1 procs for 20000 steps with 368 atoms

#-------------------- End ------------------------------------------------------------------------------------------
