LAMMPS (2 Aug 2023)
package omp 8
#-------------------- Initialization -----------------------------------------------------
clear
package omp 8
echo            both    # echoes each input script command to both log file and screen
#-----------------------------------------------------------------------------------------
units           metal   # determines units of all quantities used in the input file
atom_style      full
boundary        p p p   # periodic boundary condition
#-----------------------------------------------------------------------------------------
variable Tini equal 273+25   # [K] (Initial temperature)
variable Tfin equal 273+25   # [K] (Annealing temperature)

variable Pfin index   13.0   # [bar] (Note 1.0 bar = 0.1 MPa)

variable Nout equal    100   # every 100 time steps to the specified file

variable   natom index 5
variable   nmove index 5
variable   mu    index -5.46 # Fermi Energy (eV) from MOPAC2016 PM7
variable   disp  index 0.01

variable   tfac  equal 5.0/3.0 # (3 trans + 2 rot)/(3 trans) for molecular (2 atoms)
# trans = 3, rot = 2 (line), rot = 3 (non-line), vib = 3n-5 (line), vib = 3n-6 (non-line)
# total = 3n = 3+2+3n-5 = 3+3+3n-6
# vib = about 0.0 at R.T. for molecular (2 atoms)

#-------------------- Atom & Lattice description ----------------------------------------
read_data       data.lammps
Reading data file ...
  orthogonal box = (0 0 0) to (24.07 24.07 24.07)
  reading atoms ...
  360 atoms
Finding 1-2 1-3 1-4 neighbors ...
     0 = max # of 1-2 neighbors
     0 = max # of 1-3 neighbors
     0 = max # of 1-4 neighbors
     1 = max # of special neighbors

replicate 1 1 1
Replication is creating a 1x1x1 = 1 times larger system...
  orthogonal box = (0 0 0) to (24.07 24.07 24.07)
  360 atoms
Finding 1-2 1-3 1-4 neighbors ...
     0 = max # of 1-2 neighbors
     0 = max # of 1-3 neighbors
     0 = max # of 1-4 neighbors
     1 = max # of special neighbors
  replicate CPU = 0.001 seconds

molecule        my_one_gas ./molecular_files/H2.txt
Read molecule template my_one_gas:
  1 molecules
  0 fragments
  2 atoms with max type 3
  0 bonds with max type 0
  0 angles with max type 0
  0 dihedrals with max type 0
  0 impropers with max type 0
group           gas type 3
0 atoms in group gas
variable        atoms_of_gas equal 2 # The number of atoms per gas molecule

variable elem string "C H H" # specifies the potential file used

# set overlap_cutoff (Note: H-H: 1.06 A) = x 85% => 0.90
variable overlap_cutoff_value equal 0.90

#-------------------- Force field --------------------------------------------------------
# GPU case
pair_style hybrid/overlay chgnet/gpu /mnt/d/lammps/potentials/CHGNET momb 12.0 0.75 20.0
pair_coeff    * *  chgnet/gpu 0.3.0 C H H

# CPU case
#pair_style hybrid/overlay chgnet /mnt/d/lammps/potentials/CHGNET momb 12.0 0.75 20.0

# atom type 1, C
variable C6_1 equal 1.75  # Jnm6mol-1
variable R0_1 equal 1.452 # Angstrom

# atom type 2, H
variable C6_2 equal 0.14  # Jnm6mol-1
variable R0_2 equal 1.001 # Angstrom

# atom type 3, H
variable C6_3 equal 0.14  # Jnm6mol-1
variable R0_3 equal 1.001 # Angstrom

# convert [Jnm6mol-1] to [eVA6], (sqrt() or ()^0.5)
#-----------------------------------------------------------------------------------------
pair_coeff 1 1 momb 0.0 1.0 1.0 $(sqrt(v_C6_1 * v_C6_1)*10.364) $(v_R0_1 + v_R0_1) # C-C
pair_coeff 1 1 momb 0.0 1.0 1.0 18.137000000000000455 $(v_R0_1 + v_R0_1)
pair_coeff 1 1 momb 0.0 1.0 1.0 18.137000000000000455 2.9039999999999999147
pair_coeff 1 2 momb 0.0 1.0 1.0 $(sqrt(v_C6_1 * v_C6_2)*10.364) $(v_R0_1 + v_R0_2) # C-H
pair_coeff 1 2 momb 0.0 1.0 1.0 5.1299182761521660012 $(v_R0_1 + v_R0_2)
pair_coeff 1 2 momb 0.0 1.0 1.0 5.1299182761521660012 2.4529999999999998472
pair_coeff 1 3 momb 0.0 1.0 1.0 $(sqrt(v_C6_1 * v_C6_3)*10.364) $(v_R0_1 + v_R0_3) # C-Hg
pair_coeff 1 3 momb 0.0 1.0 1.0 5.1299182761521660012 $(v_R0_1 + v_R0_3)
pair_coeff 1 3 momb 0.0 1.0 1.0 5.1299182761521660012 2.4529999999999998472
#-----------------------------------------------------------------------------------------
pair_coeff 2 2 momb 0.0 1.0 1.0 $(sqrt(v_C6_2 * v_C6_2)*10.364) $(v_R0_2 + v_R0_2) # H-H
pair_coeff 2 2 momb 0.0 1.0 1.0 1.4509600000000002495 $(v_R0_2 + v_R0_2)
pair_coeff 2 2 momb 0.0 1.0 1.0 1.4509600000000002495 2.0019999999999997797
pair_coeff 2 3 momb 0.0 1.0 1.0 $(sqrt(v_C6_2 * v_C6_3)*10.364) $(v_R0_2 + v_R0_3) # H-Hg
pair_coeff 2 3 momb 0.0 1.0 1.0 1.4509600000000002495 $(v_R0_2 + v_R0_3)
pair_coeff 2 3 momb 0.0 1.0 1.0 1.4509600000000002495 2.0019999999999997797
#-----------------------------------------------------------------------------------------
pair_coeff 3 3 momb 0.0 1.0 1.0 $(sqrt(v_C6_3 * v_C6_3)*10.364) $(v_R0_3 + v_R0_3) # Hg-Hg
pair_coeff 3 3 momb 0.0 1.0 1.0 1.4509600000000002495 $(v_R0_3 + v_R0_3)
pair_coeff 3 3 momb 0.0 1.0 1.0 1.4509600000000002495 2.0019999999999997797
#-----------------------------------------------------------------------------------------

#-------------------- Energy Minimization ------------------------------------------------
# 0 [K], structure optimization
#fix             emin all box/relax x 0.0 y 0.0 z 0.0
#fix             emin all box/relax aniso 0.0
fix             emin all box/relax iso 13.0
min_style       cg
min_modify      dmax 0.2
min_modify      line quadratic
minimize        1.0e-4 1.0e-6 100 1000

CITE-CITE-CITE-CITE-CITE-CITE-CITE-CITE-CITE-CITE-CITE-CITE-CITE

Your simulation uses code contributions which should be cited:

- Pair style momb: doi:10.1021/jp412098n

@Article{pair_momb_2015,
title = {A Force Field for Describing the Polyvinylpyrrolidone-Mediated
    Solution-Phase Synthesis of Shape-Selective {Ag} Nanoparticles},
volume = {118},
number = {6},
url = {https://doi.org/10.1021/jp412098n},
doi = {10.1021/jp412098n},
journal = {J.~Phys.\ Chem.~C},
author = {Zhou, Ya and Wissam A. Saidi and Kristen A. Fichthorn},
year = {2014},
pages = {3366--3374}
}

CITE-CITE-CITE-CITE-CITE-CITE-CITE-CITE-CITE-CITE-CITE-CITE-CITE

No /omp style for force computation currently active
 (../min.cpp:225)
Step          Temp          E_pair         E_mol          TotEng         Press          Volume
0   0             -2851.4481      0             -2851.4481      4049.9683      13945.313
Loop time of 0.130643 on 1 procs for 1 steps with 360 atoms

Minimization stats:
  Stopping criterion = energy tolerance
  Energy initial, next-to-last, final =
  Force two-norm initial, final = 107.86066 104.54354
  Force max component initial, final = 105.41308 102.02451
  Final line search alpha, max atom move = 9.4864888e-07 9.6785438e-05
  Iterations, force evaluations = 1 1

unfix           emin

#-------------------- Settings -----------------------------------------------------------
reset_timestep 0

timestep 0.0005  # 0.5 [fs] (Recommend 0.1-1.0 [fs]), sets the timestep for subsequent simulations

variable        ngas equal count(gas)/2

variable        wtp  equal mass(gas)/mass(all)*100 # Mass Percent Concentration, wt.% [dimensionless] (Absolute, Not excess)

#variable        molc equal (v_ngas/6.022e23)/(vol*1e-30) # molar concentration [mol/m^3] (Absolute, Not excess)
variable        molL equal (v_ngas/6.022e23)/(vol*1e-27) # molar concentration [mol/L] = [mol/dm^3] (Absolute, Not excess)

variable        mc   equal (mass(gas)/6.022e23/1000)/(vol*1e-30) # Mass Concentration [kg/m^3] (Absolute, Not excess)

thermo 100
thermo_style custom step temp vol press etotal v_ngas v_wtp v_molL v_mc # specifies content of thermodynamic data to be printed in screen

#---------- output file settings --------------------------------------
dump            d1 all cfg 100 cfg/run.*.cfg mass type xs ys zs id type vx vy vz fx fy fz
dump_modify     d1 element C H H
#dump_modify     d1 sort id
#----------------------------------------------------------------------

velocity all create 298 12345 mom yes rot no

#-------------------- Run the simulation -------------------------------------------------
compute mdtemp all temp
compute_modify mdtemp dynamic/dof yes

## Equilibrium system, calculation settings
fix f1 all npt temp 298 298 0.010000000000000000208 iso 0.0 13.0 $(200*dt)
fix f1 all npt temp 298 298 0.010000000000000000208 iso 0.0 13.0 0.10000000000000000555
fix_modify f1 temp mdtemp

# non-equilibrium system, calculation settings
#fix f1 all nve
#fix_modify f2 temp mdtemp

# GCMC
fix f3 gas gcmc 100 5 5 0 12345 298 -5.46 0.01 mol my_one_gas pressure 13.0 tfac_insert 1.66666666666667 full_energy overlap_cutoff 0.9

run             20000 # 10 ps
No /omp style for force computation currently active
0 atoms in group FixGCMC:gcmc_exclusion_group:f3
0 atoms in group FixGCMC:rotation_gas_atoms:f3
Step          Temp          Volume         Press          TotEng         v_ngas         v_wtp          v_molL          v_mc
0   298            13949.497      4978.2696     -2837.6306      0              0              0              0
Averages over the last 101 of 201 rows, steps 10000 to 20000:
Temp Volume Press TotEng v_ngas v_wtp v_molL v_mc
357.188 10126 -28.6495 -3077.93 36.4356 2.03636 5.97337 12.0416
Loop time of 3854.96 on 1 procs for 20000 steps with 456 atoms

#-------------------- End ----------------------------------------------------------------
