LAMMPS (2 Aug 2023)
package omp 8
#-----------------------------------------------------------------------------------------
# 4.2 Creation of Al-Si-Mg-Cu-Fe alloys
#  Test: LAMMPS 64-bit 22Dec2022-MSMPI version
# Input file for uniaxial compressive loading of Al-Si-Mg-Cu-Fe alloys
#-----------------------------------------------------------------------------------------
clear
package omp 8
echo both
#-------------------- Environment Settings -----------------------------------------------
variable  Tdesird equal  273+170.0 # Desired Temperature [K]

variable  dt_ps   equal   0.001 # 1.0 [fs] (Recommend 0.1-1.0 [fs]), sets the timestep for subsequent simulations

variable Nsteps   equal    2000 # The number of calculations
variable Nout     equal     100 # output (e.g., 10 - 1000)

variable rseed    equal   12345 # random seed (Note: If you want different results, use different values.)

#-------------------- Initialization -----------------------------------------------------
units metal
dimension 3
boundary p p p

#-------------------- Atom & Lattice description ----------------------------------------
atom_style atomic

read_data data_after_step2.lammps
Reading data file ...
  orthogonal box = (-1.9600738 -1.9600738 -0.11760443) to (101.96007 101.96007 6.1176044)
  reading atoms ...
  3750 atoms
  reading velocities ...
  3750 velocities

variable elem string "Al Si Mg Cu Fe"

#-------------------- Force field --------------------------------------------------------
pair_style      m3gnet /mnt/d/lammps/potentials/M3GNET
#pair_style      m3gnet/d3 /mnt/d/lammps/potentials/M3GNET

pair_coeff      * *  M3GNet-MP-2021.2.8-PES Al Si Mg Cu Fe

#-----------------------------------------------------------------------------------------

#-------------------- Settings -----------------------------------------------------------
timestep 0.001

velocity all create 443 12345 mom yes rot no

#-------------------- Equilibration ------------------------------------------------------
# This calculation is done to eliminate residual stresses.

thermo 100
thermo_style custom step lx ly lz press pxx pyy pzz pe temp fmax fnorm

#-------------------- Defromation settings -----------------------------------------------
reset_timestep 0

compute csym all centro/atom fcc
#compute peratom all pe/atom

# Store final cell length for strain calculations
variable tmp equal "lx"
variable L0 equal 103.920147656492
Initial Length, L0: 103.920147656492

variable srate equal 1.0e11
variable srate1 equal "-v_srate / 1.0e12"

# Output strain and stress info to file
# for units metal, pressure is in [bars] = 100 [kPa] = 1/10000 [GPa]
# p2, p3, p4 are in GPa
variable strain equal "(lx - v_L0)/v_L0"
variable p1 equal "v_strain"
variable p2 equal "-pxx/10000"
variable p3 equal "-pyy/10000"
variable p4 equal "-pzz/10000"

thermo 100
thermo_style custom step v_strain temp v_p2 v_p3 v_p4 ke pe press

#---------- output file settings --------------------------------------
dump         d2 all cfg 100 cfg/run.comp.*.cfg mass type xs ys zs c_csym id type vx vy vz fx fy fz
dump_modify  d2 element Al Si Mg Cu Fe
#----------------------------------------------------------------------

#-------------------- Run the simulation -------------------------------------------------
fix f2 all npt temp 443 443 $(1000*dt) y 1.0 1.0 $(1000*dt) z 1.0 1.0 $(1000*dt) drag 1
fix f2 all npt temp 443 443 1 y 1.0 1.0 $(1000*dt) z 1.0 1.0 $(1000*dt) drag 1
fix f2 all npt temp 443 443 1 y 1.0 1.0 1 z 1.0 1.0 $(1000*dt) drag 1
fix f2 all npt temp 443 443 1 y 1.0 1.0 1 z 1.0 1.0 1 drag 1
fix f3 all deform 1 x erate -0.1 units box remap x

run 2000
No /omp style for force computation currently active
Step        v_strain         Temp           v_p2           v_p3           v_p4          KinEng         PotEng         Press
0  -2.7349566e-15  443            0.11395386     0.11629944    -0.177074       214.67615     -13609.842     -177.26433
Averages over the last 11 of 21 rows, steps 1000 to 2000:
v_strain Temp v_p2 v_p3 v_p4 KinEng PotEng Press
-0.15 443.951 -0.923022 -0.158745 -0.164663 215.137 -13590.9 4154.76
Loop time of 3048.29 on 1 procs for 2000 steps with 3750 atoms

write_data data_after_step3.lammps
System init for write_data ...
No /omp style for force computation currently active

#-------------------- End ----------------------------------------------------------------
