LAMMPS (2 Aug 2023)
#-------------------- Initialization -----------------------------------------------------
clear
echo            both    # echoes each input script command to both log file and screen
#-----------------------------------------------------------------------------------------
units           metal   # determines units of all quantities used in the input file
atom_style      charge
boundary        p p p   # periodic boundary condition
#-----------------------------------------------------------------------------------------
variable Tini equal 273+25  # [K] (Initial temperature)
variable Tfin equal 273+900 # [K] (Annealing temperature)

variable Nout equal  100 # every 100 time steps to the specified file

#-------------------- Atom & Lattice description ----------------------------------------
read_data       data.lammps
Reading data file ...
  orthogonal box = (0 0 0) to (5.066477 5.083702 27.041767)
  reading atoms ...
  16 atoms

replicate 2 2 1
Replication is creating a 2x2x1 = 4 times larger system...
  orthogonal box = (0 0 0) to (10.132954 10.167404 27.041767)
  64 atoms
  replicate CPU = 0.000 seconds

variable gas_num equal 3
group           gas type 3
0 atoms in group gas

variable elem string "Si O C N" # specifies the potential file used

# If "CHGNet" is not +/- 30 % of this configuration (may be set in Read_data or MoleCule File), this set value is forcibly used.
#set type 1 charge +4
#set type 2 charge -2

# set overlap_cutoff (Note: H-H: 1.06 A) => about 70%
variable overlap_cutoff_value equal 0.74

# set GCMC region
variable substrate_top equal 7.041767
region inside block $(xlo) $(xhi) $(ylo) $(yhi) $(v_substrate_top+v_overlap_cutoff_value) $(zhi-v_overlap_cutoff_value)
region inside block 0 $(xhi) $(ylo) $(yhi) $(v_substrate_top+v_overlap_cutoff_value) $(zhi-v_overlap_cutoff_value)
region inside block 0 10.132953999999999795 $(ylo) $(yhi) $(v_substrate_top+v_overlap_cutoff_value) $(zhi-v_overlap_cutoff_value)
region inside block 0 10.132953999999999795 0 $(yhi) $(v_substrate_top+v_overlap_cutoff_value) $(zhi-v_overlap_cutoff_value)
region inside block 0 10.132953999999999795 0 10.167403999999999442 $(v_substrate_top+v_overlap_cutoff_value) $(zhi-v_overlap_cutoff_value)
region inside block 0 10.132953999999999795 0 10.167403999999999442 7.7817670000000003228 $(zhi-v_overlap_cutoff_value)
region inside block 0 10.132953999999999795 0 10.167403999999999442 7.7817670000000003228 26.301767000000001673

#-------------------- Force field --------------------------------------------------------
pair_style hybrid/overlay chgnet/gpu /mnt/d/lammps/potentials/CHGNET momb 12.0 0.75 20.0
#pair_style    chgnet /mnt/d/lammps/potentials/CHGNET
#pair_style    chgnet/d3 /mnt/d/lammps/potentials/CHGNET
#pair_style    chgnet/gpu /mnt/d/lammps/potentials/CHGNET
#pair_style    chgnet/d3/gpu /mnt/d/lammps/potentials/CHGNET

pair_coeff    * *  chgnet/gpu 0.3.0 Si O C N

# atom type 1, Si
variable C6_1 equal 9.23  # Jnm6mol-1
variable R0_1 equal 1.716 # Angstrom

# atom type 2, O
variable C6_2 equal 0.7   # Jnm6mol-1
variable R0_2 equal 1.342 # Angstrom

# atom type 3, C
variable C6_3 equal 1.75  # Jnm6mol-1
variable R0_3 equal 1.452 # Angstrom

# atom type 4, N
variable C6_4 equal 1.23  # Jnm6mol-1
variable R0_4 equal 1.397 # Angstrom

# convert [Jnm6mol-1] to [eVA6], (sqrt() or ()^0.5)
pair_coeff 1 1 momb 0.0 1.0 1.0 $(sqrt(v_C6_1 * v_C6_1)*10.364) $(v_R0_1 + v_R0_1) # Si-Si
pair_coeff 1 1 momb 0.0 1.0 1.0 95.65972000000000719 $(v_R0_1 + v_R0_1)
pair_coeff 1 1 momb 0.0 1.0 1.0 95.65972000000000719 3.4319999999999999396
pair_coeff 1 2 momb 0.0 1.0 1.0 $(sqrt(v_C6_1 * v_C6_2)*10.364) $(v_R0_1 + v_R0_2) # Si-O
pair_coeff 1 2 momb 0.0 1.0 1.0 26.343730499988041061 $(v_R0_1 + v_R0_2)
pair_coeff 1 2 momb 0.0 1.0 1.0 26.343730499988041061 3.0579999999999998295
pair_coeff 1 3 momb 0.0 1.0 1.0 $(sqrt(v_C6_1 * v_C6_3)*10.364) $(v_R0_1 + v_R0_3) # Si-C
pair_coeff 1 3 momb 0.0 1.0 1.0 41.653095222804275011 $(v_R0_1 + v_R0_3)
pair_coeff 1 3 momb 0.0 1.0 1.0 41.653095222804275011 3.1680000000000001492
pair_coeff 1 4 momb 0.0 1.0 1.0 $(sqrt(v_C6_1 * v_C6_4)*10.364) $(v_R0_1 + v_R0_4) # Si-N
pair_coeff 1 4 momb 0.0 1.0 1.0 34.920528716478507647 $(v_R0_1 + v_R0_4)
pair_coeff 1 4 momb 0.0 1.0 1.0 34.920528716478507647 3.1129999999999999893
pair_coeff 2 2 momb 0.0 1.0 1.0 $(sqrt(v_C6_2 * v_C6_2)*10.364) $(v_R0_2 + v_R0_2) # O-O
pair_coeff 2 2 momb 0.0 1.0 1.0 7.2548000000000003595 $(v_R0_2 + v_R0_2)
pair_coeff 2 2 momb 0.0 1.0 1.0 7.2548000000000003595 2.6840000000000001634
pair_coeff 2 3 momb 0.0 1.0 1.0 $(sqrt(v_C6_2 * v_C6_3)*10.364) $(v_R0_2 + v_R0_3) # O-C
pair_coeff 2 3 momb 0.0 1.0 1.0 11.470845984494779657 $(v_R0_2 + v_R0_3)
pair_coeff 2 3 momb 0.0 1.0 1.0 11.470845984494779657 2.7940000000000000391
pair_coeff 2 4 momb 0.0 1.0 1.0 $(sqrt(v_C6_2 * v_C6_4)*10.364) $(v_R0_2 + v_R0_4) # O-N
pair_coeff 2 4 momb 0.0 1.0 1.0 9.6167644795949964731 $(v_R0_2 + v_R0_4)
pair_coeff 2 4 momb 0.0 1.0 1.0 9.6167644795949964731 2.7389999999999998792
pair_coeff 3 3 momb 0.0 1.0 1.0 $(sqrt(v_C6_3 * v_C6_3)*10.364) $(v_R0_3 + v_R0_3) # C-C
pair_coeff 3 3 momb 0.0 1.0 1.0 18.137000000000000455 $(v_R0_3 + v_R0_3)
pair_coeff 3 3 momb 0.0 1.0 1.0 18.137000000000000455 2.9039999999999999147
pair_coeff 3 4 momb 0.0 1.0 1.0 $(sqrt(v_C6_3 * v_C6_4)*10.364) $(v_R0_3 + v_R0_4) # C-N
pair_coeff 3 4 momb 0.0 1.0 1.0 15.205439738462022348 $(v_R0_3 + v_R0_4)
pair_coeff 3 4 momb 0.0 1.0 1.0 15.205439738462022348 2.849000000000000199
pair_coeff 4 4 momb 0.0 1.0 1.0 $(sqrt(v_C6_4 * v_C6_4)*10.364) $(v_R0_4 + v_R0_4) # N-N
pair_coeff 4 4 momb 0.0 1.0 1.0 12.74772000000000105 $(v_R0_4 + v_R0_4)
pair_coeff 4 4 momb 0.0 1.0 1.0 12.74772000000000105 2.7940000000000000391

#-------------------- Energy Minimization ------------------------------------------------
# 0 [K], structure optimization
minimize 1.0e-4 1.0e-6 100 1000

CITE-CITE-CITE-CITE-CITE-CITE-CITE-CITE-CITE-CITE-CITE-CITE-CITE

Your simulation uses code contributions which should be cited:

- Pair style momb: doi:10.1021/jp412098n

@Article{pair_momb_2015,
title = {A Force Field for Describing the Polyvinylpyrrolidone-Mediated
    Solution-Phase Synthesis of Shape-Selective {Ag} Nanoparticles},
volume = {118},
number = {6},
url = {https://doi.org/10.1021/jp412098n},
doi = {10.1021/jp412098n},
journal = {J.~Phys.\ Chem.~C},
author = {Zhou, Ya and Wissam A. Saidi and Kristen A. Fichthorn},
year = {2014},
pages = {3366--3374}
}

CITE-CITE-CITE-CITE-CITE-CITE-CITE-CITE-CITE-CITE-CITE-CITE-CITE

Step          Temp          E_pair         E_mol          TotEng         Press
0   0             -448.10046      0             -448.10046      135182.4
Loop time of 0.942645 on 1 procs for 13 steps with 64 atoms

Minimization stats:
  Stopping criterion = energy tolerance
  Energy initial, next-to-last, final =
  Force two-norm initial, final = 398.2691 3.3074461
  Force max component initial, final = 99.588735 0.5528049
  Final line search alpha, max atom move = 0.10850051 0.059979615
  Iterations, force evaluations = 13 25

#-------------------- Settings -----------------------------------------------------------
reset_timestep 0

timestep 0.00025 # 0.25 [fs] (Recommend 0.1-1.0 [fs]), sets the timestep for subsequent simulations

thermo 100
thermo_style custom step temp vol press etotal   # specifies content of thermodynamic data to be printed in screen

#---------- output file settings --------------------------------------
dump            d1 all cfg 100 cfg/run.*.cfg mass type xs ys zs id type vx vy vz fx fy fz q
dump_modify     d1 element Si O C N
#dump_modify     d1 sort id
#----------------------------------------------------------------------

velocity all create 298 12345 mom yes rot no

#-------------------- Run the simulation -------------------------------------------------
compute mdtemp all temp
compute_modify mdtemp dynamic/dof yes

## Equilibrium system, calculation settings
#fix_modify f1 temp mdtemp

# non-equilibrium system, calculation settings
fix f1 all nve
fix f2 all langevin 298 1173 $(20*dt) 1234567
fix f2 all langevin 298 1173 0.0050000000000000001041 1234567
fix_modify f2 temp mdtemp

# GCMC (gas = type 3)
fix f3 gas gcmc 100 6 6 3 29494 298 0.0 0.01 region inside overlap_cutoff 0.74

run             2000 # 5 ps
0 atoms in group FixGCMC:gcmc_exclusion_group:f3
Step          Temp          Volume         Press          TotEng
0   298            2786.0007     -2648.6778     -509.65062
Averages over the last 11 of 21 rows, steps 1000 to 2000:
Temp Volume Press TotEng
1655.12 2786 -8160.57 -708.072
Loop time of 98.8982 on 1 procs for 2000 steps with 113 atoms

unfix f2
unfix f3
#-------------------- Run the simulation -------------------------------------------------

## Delete overlapping atoms

fix f4 all langevin 1173 1173 $(20*dt) 1234567
fix f4 all langevin 1173 1173 0.0050000000000000001041 1234567
fix_modify f4 temp mdtemp

# GCMC (gas = type 3)
fix f5 gas gcmc 100 3 3 3 29494 298 0.0 0.01 region inside overlap_cutoff 0.74

run             10000 # 2.5 ps
0 atoms in group FixGCMC:gcmc_exclusion_group:f5
Step          Temp          Volume         Press          TotEng
2000   1290.2832      2786.0007     -16391.358     -782.24663
Averages over the last 51 of 101 rows, steps 7000 to 12000:
Temp Volume Press TotEng
2145.87 2786 8520.62 -1553.91
Loop time of 992.358 on 1 procs for 10000 steps with 228 atoms

unfix f4
unfix f5
#-------------------- Run the simulation -------------------------------------------------

## Delete overlapping atoms

fix f6 all langevin 1173 1173 $(20*dt) 1234567
fix f6 all langevin 1173 1173 0.0050000000000000001041 1234567
fix_modify f6 temp mdtemp

# GCMC (gas = type 3)
fix f7 gas gcmc 100 1 1 3 29494 298 0.0 0.01 region inside overlap_cutoff 0.74

run             100000 # 25 ps
0 atoms in group FixGCMC:gcmc_exclusion_group:f7
Step          Temp          Volume         Press          TotEng
12000   1189.2378      2786.0007      37367.384     -1812.3725
Averages over the last 501 of 1001 rows, steps 62000 to 112000:
Temp Volume Press TotEng
1973.46 2786 151592 -3127.92
Loop time of 171616 on 1 procs for 100000 steps with 408 atoms

#-------------------- End ----------------------------------------------------------------
